geometry optimzed in LAMMPS
_audit_creation_date              2020-11-30 
_audit_creation_method            'lammps2cif' 
_symmetry_space_group_name_H-M    'P1' 
_symmetry_Int_Tables_number       1 
_symmetry_cell_setting            triclinic 
loop_ 
_symmetry_equiv_pos_as_xyz 
  x,y,z 
_cell_length_a                    35.78266535 
_cell_length_b                    35.8663328733093 
_cell_length_c                    56.26542071136658 
_cell_angle_alpha                 90.05872542319172 
_cell_angle_beta                  89.8435063699397 
_cell_angle_gamma                 122.39788083379061 
loop_ 
_atom_site_label 
_atom_site_type_symbol 
_atom_site_fract_x 
_atom_site_fract_y 
_atom_site_fract_z 
_atom_site_charge 
C1          C  0.33838251  0.29065861  0.66043365     0.80300
N2          N  0.30785272  0.30010320  0.65339202    -0.78000
C3          C  0.31341678  0.32172774  0.63245707     0.82700
N4          N  0.34911414  0.33302704  0.61864259    -0.78000
C5          C  0.37932789  0.32364982  0.62541517     0.82800
N6          N  0.37414669  0.30292975  0.64636331    -0.79700
C7          C  0.89609705  0.27516791  0.65658568     0.80300
N8          N  0.87342350  0.28994232  0.64473769    -0.78000
C9          C  0.88543252  0.30632304  0.62237082     0.82700
N10         N  0.92096707  0.30885240  0.61193540    -0.78000
C11         C  0.94421365  0.29456492  0.62363171     0.82800
N12         N  0.93167208  0.27794367  0.64600369    -0.79700
C13         C  0.11675917  0.34673369  0.58659508     0.80300
N14         N  0.14491412  0.33879779  0.59833337    -0.78000
C15         C  0.18628169  0.35431288  0.58992788     0.82700
N16         N  0.19947289  0.37826294  0.56947622    -0.78000
C17         C  0.17184023  0.38661026  0.55754007     0.82800
N18         N  0.13042379  0.37075254  0.56615143    -0.79700
C19         C  0.89662798  0.55313002  0.66269484     0.80300
N20         N  0.87308087  0.51300551  0.65180764    -0.78000
C21         C  0.89086993  0.50354711  0.63319837     0.82700
N22         N  0.93197766  0.53424277  0.62549050    -0.78000
C23         C  0.95604660  0.57401030  0.63640480     0.82800
N24         N  0.93806924  0.58349671  0.65491331    -0.79700
C25         C  0.34273457  0.00622993  0.66103524     0.80300
N26         N  0.30966589  0.96556962  0.65334728    -0.78000
C27         C  0.31542740  0.94745449  0.63339970     0.82700
N28         N  0.35418356  0.97033085  0.62126132    -0.78000
C29         C  0.38719945  0.01043998  0.62882683     0.82800
N30         N  0.38147577  0.02837156  0.64865494    -0.79700
C31         C  0.12664889  0.70319775  0.59673883     0.80300
N32         N  0.13885761  0.69063191  0.57693242    -0.78000
C33         C  0.17810639  0.71849856  0.56615478     0.82700
N34         N  0.20546979  0.75951454  0.57533350    -0.78000
C35         C  0.19356735  0.77271334  0.59512158     0.82800
N36         N  0.15422274  0.74419972  0.60584827    -0.79700
N37         N  0.49764848  0.04013857  0.60477633    -0.36600
N38         N  0.57599394  0.08458890  0.57437910    -0.57100
N39         N  0.54061326  0.13199731  0.55080649    -0.36600
N40         N  0.46423355  0.09041951  0.58280683    -0.57100
C41         C  0.52360756  0.02881273  0.61596638     0.27000
C42         C  0.46342494  0.02991454  0.61947955     0.27000
C43         C  0.58198130  0.15349784  0.54150864     0.27000
C44         C  0.52280929  0.15626551  0.54585775     0.27000
C45         C  0.58510163  0.05752807  0.58611600     0.35600
C46         C  0.60755423  0.10552800  0.55753713     0.35600
C47         C  0.42849296  0.06250781  0.59611726     0.35600
C48         C  0.45175780  0.11193505  0.56840918     0.35600
C49         C  0.50509296  0.01045472  0.63792692    -0.21800
C50         C  0.46715833  0.01110312  0.64010257    -0.21800
C51         C  0.58979346  0.19102515  0.52972804    -0.21800
C52         C  0.55265557  0.19283698  0.53251859    -0.21800
C53         C  0.62285758  0.06132898  0.57669368    -0.22900
C54         C  0.63713789  0.09178706  0.55864949    -0.22900
C55         C  0.39323398  0.06665728  0.59034506    -0.22900
C56         C  0.40804833  0.09815609  0.57288586    -0.22900
C57         C  0.56239630  0.03271212  0.60660216    -0.18300
C58         C  0.42790344  0.03532739  0.61442791    -0.18300
C59         C  0.47999974  0.14590625  0.55241997    -0.18200
C60         C  0.61298167  0.14040141  0.54308922    -0.18200
H61         H  0.51732996  0.99756349  0.65105285     0.14700
H62         H  0.44485033  0.99906803  0.65518368     0.14700
H63         H  0.61909594  0.21462979  0.51992692     0.14700
H64         H  0.54819803  0.21821826  0.52541461     0.14700
H65         H  0.63928872  0.04501508  0.58268184     0.12900
H66         H  0.66669594  0.10340287  0.54807390     0.12900
H67         H  0.36046280  0.04935764  0.59816672     0.12900
H68         H  0.38886245  0.10977400  0.56459650     0.12900
H69         H  0.50165665  0.05196979  0.58760192     0.26200
H70         H  0.52504309  0.10198121  0.55952236     0.26200
C71         C  0.46449234  0.17365616  0.54288650     0.80300
N72         N  0.47859148  0.21357843  0.55275507    -0.78000
C73         C  0.46349489  0.23870769  0.54451208     0.82700
N74         N  0.43429477  0.22384282  0.52611110    -0.78000
C75         C  0.42011392  0.18374311  0.51615105     0.82800
N76         N  0.43525157  0.15881751  0.52467789    -0.79700
N77         N  0.49596292  0.40846088  0.60690444    -0.36600
N78         N  0.46041441  0.32293970  0.58311994    -0.57100
N79         N  0.54815118  0.35524019  0.56307611    -0.36600
N80         N  0.58357327  0.44100860  0.58649121    -0.57100
C81         C  0.45520902  0.38566977  0.61692514     0.27000
C82         C  0.51919536  0.44819750  0.61785639     0.27000
C83         C  0.52442800  0.31631235  0.55134131     0.27000
C84         C  0.58906524  0.37816627  0.55320518     0.27000
C85         C  0.42379289  0.31316063  0.59545862     0.35600
C86         C  0.45013969  0.28648866  0.57058155     0.35600
C87         C  0.59441857  0.47629035  0.60024869     0.35600
C88         C  0.62140779  0.44893001  0.57635062     0.35600
C89         C  0.45215415  0.41191532  0.63400795    -0.21800
C90         C  0.49231535  0.45120457  0.63455283    -0.21800
C91         C  0.55101216  0.31415675  0.53410380    -0.21800
C92         C  0.59160229  0.35303771  0.53524547    -0.21800
C93         C  0.38971585  0.27026577  0.59050033    -0.22900
C94         C  0.40638510  0.25337499  0.57478559    -0.22900
C95         C  0.63961541  0.50693589  0.59886379    -0.22900
C96         C  0.65672396  0.48954132  0.58381660    -0.22900
C97         C  0.42075180  0.34158169  0.61173170    -0.18300
C98         C  0.56439636  0.48143260  0.61412860    -0.18300
C99         C  0.62460676  0.42081094  0.55994588    -0.18200
C100        C  0.47963719  0.28226049  0.55564051    -0.18200
H101        H  0.42413775  0.40346707  0.64529607     0.14700
H102        H  0.50104062  0.47841542  0.64645620     0.14700
H103        H  0.54197920  0.28752375  0.52172369     0.14700
H104        H  0.61971374  0.36185079  0.52395566     0.14700
H105        H  0.35640431  0.25277961  0.59762658     0.12900
H106        H  0.38834804  0.22034500  0.56745974     0.12900
H107        H  0.65842319  0.53844289  0.60785223     0.12900
H108        H  0.69122196  0.50511544  0.57889917     0.12900
H109        H  0.50722770  0.39754484  0.59339994     0.26200
H110        H  0.53758751  0.36502046  0.57748689     0.26200
C111        C  0.66818176  0.43688450  0.54893876     0.80300
N112        N  0.68348107  0.46704849  0.53102490    -0.78000
C113        C  0.72307495  0.48047318  0.52056533     0.82700
N114        N  0.74719079  0.46374146  0.52815696    -0.78000
C115        C  0.73174444  0.43343011  0.54585659     0.82800
N116        N  0.69228085  0.42004832  0.55623021    -0.79700
C117        C  0.71094809  0.18490241  0.50326516     0.80300
N118        N  0.66983757  0.15755520  0.51257459    -0.78000
C119        C  0.65701137  0.16983523  0.53225707     0.82700
N120        N  0.68526212  0.20934910  0.54262678    -0.78000
C121        C  0.72626629  0.23686861  0.53352026     0.82800
N122        N  0.73920655  0.22458059  0.51384034    -0.79700
N123        N  0.85295812  0.38888492  0.61105110    -0.36600
N124        N  0.81098666  0.31359449  0.57789399    -0.57100
N125        N  0.76929316  0.35391603  0.55319332    -0.36600
N126        N  0.81245585  0.42968440  0.58596973    -0.57100
C127        C  0.87163061  0.36676499  0.61867698     0.27000
C128        C  0.87260403  0.42802659  0.62269969     0.27000
C129        C  0.74715896  0.31338515  0.54299408     0.27000
C130        C  0.74821672  0.37458432  0.54716521     0.27000
C131        C  0.83422157  0.30122603  0.59097767     0.35600
C132        C  0.78773785  0.28139083  0.56168284     0.35600
C133        C  0.83581313  0.46207606  0.60200359     0.35600
C134        C  0.79004508  0.44255280  0.57263227     0.35600
C135        C  0.90284926  0.39182208  0.63598406    -0.21800
C136        C  0.90344181  0.43028261  0.63849600    -0.21800
C137        C  0.71270795  0.30915661  0.52945086    -0.21800
C138        C  0.71331071  0.34753935  0.53210386    -0.21800
C139        C  0.82580475  0.26085689  0.58291472    -0.22900
C140        C  0.79636666  0.24828064  0.56445745    -0.22900
C141        C  0.82839799  0.49592760  0.59870006    -0.22900
C142        C  0.79936670  0.48352836  0.58018474    -0.22900
C143        C  0.86243662  0.32516866  0.61033322    -0.18300
C144        C  0.86431710  0.46227239  0.61943241    -0.18300
C145        C  0.75880672  0.41685724  0.55488632    -0.18200
C146        C  0.75635322  0.27960550  0.54559048    -0.18200
H147        H  0.92373758  0.38369567  0.64558462     0.14700
H148        H  0.92465899  0.45711543  0.65042477     0.14700
H149        H  0.68936981  0.28126954  0.51874014     0.14700
H150        H  0.69029759  0.35449410  0.52398361     0.14700
H151        H  0.83901994  0.24205207  0.58978925     0.12900
H152        H  0.78240114  0.21784526  0.55449169     0.12900
H153        H  0.84212160  0.52630985  0.60869104     0.12900
H154        H  0.78610284  0.50232199  0.57335302     0.12900
H155        H  0.82786479  0.37758042  0.59859320     0.26200
H156        H  0.79760925  0.36708394  0.56352595     0.26200
C157        C  0.61713304  0.00444095  0.65283625     0.80300
N158        N  0.60201629  0.02628992  0.64045527    -0.78000
C159        C  0.58075260  0.01015633  0.61947516     0.82700
N160        N  0.57414235  0.97178884  0.61093464    -0.78000
C161        C  0.58900579  0.94945867  0.62298065     0.82800
N162        N  0.61028541  0.96584846  0.64407014    -0.79700
C163        C  0.61905932  0.56993908  0.65938099     0.80300
N164        N  0.60950543  0.59963341  0.65119504    -0.78000
C165        C  0.58501824  0.59077626  0.63107370     0.82700
N166        N  0.57127643  0.55275783  0.61898678    -0.78000
C167        C  0.58165863  0.52367795  0.62677002     0.82800
N168        N  0.60501600  0.53203935  0.64711025    -0.79700
C169        C  0.54023618  0.77596473  0.58902629     0.80300
N170        N  0.51634898  0.76187292  0.56864404    -0.78000
C171        C  0.50393093  0.72223737  0.55907418     0.82700
N172        N  0.51537350  0.69609082  0.57008041    -0.78000
C173        C  0.53948417  0.70972343  0.59047601     0.82800
N174        N  0.55186790  0.74974034  0.59986096    -0.79700
O175        O  0.78265980  0.54518848  0.75361590    -0.74400
O176        O  0.70966627  0.55238147  0.79985071    -0.74400
O177        O  0.71088549  0.55050740  0.75189022    -0.74500
O178        O  0.78200916  0.54817016  0.80163670    -0.74500
O179        O  0.82667643  0.62150576  0.80006222    -0.74500
O180        O  0.75300123  0.62395102  0.75115753    -0.74400
O181        O  0.75329321  0.62573759  0.79993240    -0.74400
O182        O  0.82556065  0.61842083  0.75141619    -0.74500
Ni183      Ni  0.74491358  0.54661890  0.77675579     1.25400
Ni184      Ni  0.79123158  0.62519400  0.77558359     1.25400
C185        C  0.81547734  0.57997743  0.74446697     0.87800
C186        C  0.71995342  0.58981720  0.80823316     0.87700
C187        C  0.72045147  0.58752085  0.74302619     0.87800
C188        C  0.81526894  0.58434036  0.80948399     0.87900
O189        O  0.70640057  0.11990911  0.74910578    -0.74400
O190        O  0.77789134  0.18719400  0.80214648    -0.74400
O191        O  0.78564654  0.19575555  0.75396865    -0.74500
O192        O  0.69874654  0.11165888  0.79686486    -0.74500
O193        O  0.73236156  0.07449200  0.79738846    -0.74500
O194        O  0.81803126  0.15742438  0.75274985    -0.74400
O195        O  0.81257478  0.15087370  0.80115369    -0.74400
O196        O  0.73824594  0.08101484  0.74909670    -0.74500
Ni197      Ni  0.74114386  0.15503831  0.77554994     1.25400
Ni198      Ni  0.77657185  0.11463430  0.77508304     1.25400
C199        C  0.71027640  0.08916763  0.74032524     0.87800
C200        C  0.80627052  0.17950658  0.81072511     0.87700
C201        C  0.81520348  0.18972137  0.74546750     0.87800
C202        C  0.70137000  0.07959874  0.80463119     0.87900
O203        O  0.29539976  0.08997919  0.75181349    -0.74400
O204        O  0.29198972  0.16189120  0.80183525    -0.74400
O205        O  0.29602380  0.16588607  0.75333582    -0.74500
O206        O  0.29100973  0.08581749  0.80021680    -0.74500
O207        O  0.36463959  0.12464707  0.80173395    -0.74500
O208        O  0.36950500  0.20436737  0.75492374    -0.74400
O209        O  0.36566152  0.20053566  0.80304479    -0.74400
O210        O  0.36888116  0.12887078  0.75364252    -0.74500
Ni211      Ni  0.29094620  0.12452738  0.77675116     1.25400
Ni212      Ni  0.36971041  0.16596333  0.77842868     1.25400
C213        C  0.33290106  0.09778604  0.74431700     0.87800
C214        C  0.32853920  0.19311023  0.81072811     0.87700
C215        C  0.33363990  0.19791409  0.74596428     0.87800
C216        C  0.32710019  0.09204838  0.80873534     0.87900
C217        C  0.34131675  0.29130547  0.89506774     0.80300
N218        N  0.38074283  0.30869753  0.90641424    -0.78000
C219        C  0.38851942  0.33154645  0.92695661     0.82700
N220        N  0.35688656  0.33726261  0.93610652    -0.78000
C221        C  0.31735083  0.32010767  0.92494657     0.82800
N222        N  0.30967931  0.29716331  0.90434249    -0.79700
C223        C  0.89863916  0.27878221  0.89522136     0.80300
N224        N  0.93941066  0.28937273  0.90267785    -0.78000
C225        C  0.95832016  0.31518854  0.92227555     0.82700
N226        N  0.93607524  0.33047171  0.93423982    -0.78000
C227        C  0.89551042  0.31992830  0.92695057     0.82800
N228        N  0.87703676  0.29421709  0.90757232    -0.79700
C229        C  0.12648068  0.36036903  0.96314956     0.80300
N230        N  0.15276249  0.34779965  0.95314657    -0.78000
C231        C  0.19081224  0.35731748  0.96407753     0.82700
N232        N  0.20224531  0.37937944  0.98506990    -0.78000
C233        C  0.17626002  0.39187031  0.99518657     0.82800
N234        N  0.13842773  0.38213089  0.98424316    -0.79700
N235        N  0.49428966  0.04429256  0.93969314    -0.36600
N236        N  0.46183332  0.09108324  0.96604520    -0.57100
N237        N  0.54383701  0.13588893  0.99365541    -0.36600
N238        N  0.57407431  0.08498820  0.96957278    -0.57100
C239        C  0.45114257  0.02108208  0.93324698     0.27000
C240        C  0.51106756  0.01941358  0.93418051     0.27000
C241        C  0.52125920  0.15141190  0.00468984     0.27000
C242        C  0.58005900  0.14753917  0.00688228     0.27000
C243        C  0.42908529  0.07090595  0.94985340     0.35600
C244        C  0.45636045  0.12121773  0.97711603     0.35600
C245        C  0.58519394  0.06471775  0.95335742     0.35600
C246        C  0.61122506  0.11263239  0.98198644     0.35600
C247        C  0.44064775  0.98133875  0.92312679    -0.21800
C248        C  0.47847544  0.98034026  0.92365246    -0.21800
C249        C  0.54335195  0.17319891  0.02533325    -0.21800
C250        C  0.58045061  0.17076877  0.02670791    -0.21800
C251        C  0.40204834  0.08761914  0.95092499    -0.22900
C252        C  0.41941636  0.11963291  0.96814459    -0.22900
C253        C  0.62938692  0.07878170  0.95578642    -0.22900
C254        C  0.64588908  0.10912778  0.97392362    -0.22900
C255        C  0.42143295  0.03545513  0.93535480    -0.18300
C256        C  0.55540443  0.03170933  0.93740514    -0.18300
C257        C  0.61440046  0.14076407  0.00062125    -0.18200
C258        C  0.48285489  0.14882862  0.99593090    -0.18200
H259        H  0.40906423  0.95570495  0.91600713     0.14700
H260        H  0.48152720  0.95373605  0.91704999     0.14700
H261        H  0.53413619  0.18981361  0.03789500     0.14700
H262        H  0.60531937  0.18518298  0.04050421     0.14700
H263        H  0.37269284  0.07757810  0.94054402     0.12900
H264        H  0.40602351  0.13914481  0.97360497     0.12900
H265        H  0.64775460  0.06810775  0.94564100     0.12900
H266        H  0.67958298  0.12661645  0.98040912     0.12900
H267        H  0.51204957  0.07622785  0.94630733     0.26200
H268        H  0.53643503  0.12087029  0.97719151     0.26200
C269        C  0.71256825  0.18201324  0.04005430     0.80300
N270        N  0.74076379  0.22236659  0.03023224    -0.78000
C271        C  0.72781847  0.23620057  0.01130697     0.82700
N272        N  0.68664157  0.20967278  0.00223201    -0.78000
C273        C  0.65822577  0.16946220  0.01187510     0.82800
N274        N  0.67121210  0.15550065  0.03077958    -0.79700
C275        C  0.59833413  0.99495538  0.88884607     0.80300
N276        N  0.59113634  0.95653042  0.89802509    -0.78000
C277        C  0.57295011  0.94271199  0.92004400     0.82700
N278        N  0.56280274  0.96811613  0.93296528    -0.78000
C279        C  0.57028793  0.00658612  0.92409242     0.82800
N280        N  0.58793993  0.01986823  0.90210210    -0.79700
C281        C  0.62382432  0.57320178  0.89392158     0.80300
N282        N  0.60997859  0.53542194  0.90625746    -0.78000
C283        C  0.59241891  0.52995722  0.92831263     0.82700
N284        N  0.58807093  0.56216985  0.93793304    -0.78000
C285        C  0.60185960  0.60018516  0.92576389     0.82800
N286        N  0.61978130  0.60552317  0.90372713    -0.79700
C287        C  0.54943934  0.78343743  0.96251384     0.80300
N288        N  0.56365876  0.75840027  0.95261038    -0.78000
C289        C  0.55595217  0.72110248  0.96376390     0.82700
N290        N  0.53356000  0.70883824  0.98473150    -0.78000
C291        C  0.51900739  0.73329400  0.99460777     0.82800
N292        N  0.52708797  0.77037000  0.98348358    -0.79700
N293        N  0.86211517  0.39998913  0.94172256    -0.36600
N294        N  0.81585502  0.31972211  0.97051868    -0.57100
N295        N  0.76993796  0.35469869  0.99602711    -0.36600
N296        N  0.81251805  0.43279291  0.96529517    -0.57100
C297        C  0.87475173  0.37520129  0.93046052     0.27000
C298        C  0.87182913  0.43415641  0.92725514     0.27000
C299        C  0.74643982  0.31239093  0.00380869     0.27000
C300        C  0.74770934  0.37392099  0.00261576     0.27000
C301        C  0.84417752  0.31187941  0.95901704     0.35600
C302        C  0.79293287  0.28626679  0.98613534     0.35600
C303        C  0.84045540  0.46870005  0.95211035     0.35600
C304        C  0.79383888  0.44600190  0.98139215     0.35600
C305        C  0.89325544  0.39419582  0.90859507    -0.21800
C306        C  0.89136483  0.43138658  0.90657829    -0.21800
C307        C  0.70946613  0.30517145  0.01618313    -0.21800
C308        C  0.71032407  0.34391149  0.01545999    -0.21800
C309        C  0.83907261  0.27299655  0.96729264    -0.22900
C310        C  0.80638119  0.25658897  0.98429592    -0.22900
C311        C  0.83893915  0.50470820  0.95960608    -0.22900
C312        C  0.80934313  0.49030391  0.97810541    -0.22900
C313        C  0.87164618  0.33694008  0.93970560    -0.18300
C314        C  0.86631409  0.46930354  0.93290630    -0.18300
C315        C  0.76064063  0.41805035  0.99788089    -0.18200
C316        C  0.75769372  0.28028560  0.00063978    -0.18200
H317        H  0.90694970  0.38265969  0.89546819     0.14700
H318        H  0.90337744  0.45403170  0.89168533     0.14700
H319        H  0.68443533  0.27520700  0.02501209     0.14700
H320        H  0.68604454  0.34923869  0.02350340     0.14700
H321        H  0.85609804  0.25730572  0.96118636     0.12900
H322        H  0.79356789  0.22593064  0.99389498     0.12900
H323        H  0.85708850  0.53788169  0.95243622     0.12900
H324        H  0.80015408  0.51018051  0.98792667     0.12900
H325        H  0.85007718  0.39530940  0.95890979     0.26200
H326        H  0.80008213  0.37014148  0.98732641     0.26200
C327        C  0.72471456  0.47670778  0.03702741     0.80300
N328        N  0.68532129  0.46464510  0.02700007    -0.78000
C329        C  0.67043520  0.43752058  0.00787808     0.82700
N330        N  0.69485009  0.42232179  0.99872363    -0.78000
C331        C  0.73421599  0.43418912  0.00861346     0.82800
N332        N  0.74930047  0.46152079  0.02776708    -0.79700
N333        N  0.50689408  0.41231780  0.94391946    -0.36600
N334        N  0.58994946  0.44577212  0.96919080    -0.57100
N335        N  0.55193467  0.35929888  0.99221153    -0.36600
N336        N  0.46716193  0.32799011  0.96953754    -0.57100
C337        C  0.52828590  0.45556715  0.93791937     0.27000
C338        C  0.46396926  0.39337858  0.93760934     0.27000
C339        C  0.59048166  0.38300337  0.00417103     0.27000
C340        C  0.52614705  0.32106861  0.00423327     0.27000
C341        C  0.60288508  0.48078189  0.95476561     0.35600
C342        C  0.62675853  0.45250684  0.97995242     0.35600
C343        C  0.43368194  0.31764631  0.95439647     0.35600
C344        C  0.45732895  0.28982146  0.98004780     0.35600
C345        C  0.49860162  0.46402508  0.92730543    -0.21800
C346        C  0.45812590  0.42487371  0.92710557    -0.21800
C347        C  0.58929080  0.35943820  0.02402495    -0.21800
C348        C  0.54871519  0.32035065  0.02404246    -0.21800
C349        C  0.64816858  0.51045978  0.95671427    -0.22900
C350        C  0.66333125  0.49248613  0.97262693    -0.22900
C351        C  0.40184612  0.27282833  0.95579318    -0.22900
C352        C  0.41690826  0.25520873  0.97195002    -0.22900
C353        C  0.57409718  0.48730672  0.94074807    -0.18300
C354        C  0.43034834  0.34810479  0.93999301    -0.18300
C355        C  0.48382217  0.28578387  0.99718993    -0.18200
C356        C  0.62766557  0.42410507  0.99703851    -0.18200
H357        H  0.50535163  0.49511999  0.92025158     0.14700
H358        H  0.42788653  0.42018104  0.91989441     0.14700
H359        H  0.61513890  0.36922135  0.03705995     0.14700
H360        H  0.53723332  0.29423249  0.03708045     0.14700
H361        H  0.66813235  0.54190465  0.94776230     0.12900
H362        H  0.69729576  0.50740961  0.97835902     0.12900
H363        H  0.37091688  0.25462707  0.94618955     0.12900
H364        H  0.39996803  0.22084399  0.97715733     0.12900
H365        H  0.52110080  0.39604858  0.95077295     0.26200
H366        H  0.54490875  0.36753865  0.97595945     0.26200
C367        C  0.46899028  0.17657449  0.00715446     0.80300
N368        N  0.43863402  0.15981531  0.02488773    -0.78000
C369        C  0.42300771  0.18382866  0.03411272     0.82700
N370        N  0.43754382  0.22478039  0.02523853    -0.78000
C371        C  0.46785682  0.24156015  0.00731498     0.82800
N372        N  0.48345938  0.21731728  0.99831546    -0.79700
C373        C  0.90136084  0.56104535  0.88994006     0.80300
N374        N  0.87706668  0.52082350  0.90068108    -0.78000
C375        C  0.89329870  0.51113285  0.91981288     0.82700
N376        N  0.93327352  0.54192366  0.92861942    -0.78000
C377        C  0.95774742  0.58238296  0.91848853     0.82800
N378        N  0.94171465  0.59185868  0.89900004    -0.79700
C379        C  0.33153689  0.00016832  0.89138831     0.80300
N380        N  0.29826144  0.96254356  0.90170288    -0.78000
C381        C  0.30508729  0.94834174  0.92274673     0.82700
N382        N  0.34516202  0.97235316  0.93344249    -0.78000
C383        C  0.37834198  0.00975665  0.92329161     0.82800
N384        N  0.37159768  0.02350262  0.90225827    -0.79700
C385        C  0.12270401  0.70746545  0.96592189     0.80300
N386        N  0.13885817  0.69560099  0.98425437    -0.78000
C387        C  0.17924705  0.72469323  0.99362771     0.82700
N388        N  0.20356136  0.76628139  0.98469263    -0.78000
C389        C  0.18737863  0.77890825  0.96669681     0.82800
N390        N  0.14718153  0.74926744  0.95732855    -0.79700
C391        C  0.00919567  0.33475596  0.38777096     0.80300
N392        N  0.03335987  0.37393964  0.39934141    -0.78000
C393        C  0.01942351  0.37978065  0.42063133     0.82700
N394        N  0.98123933  0.34677729  0.43030864    -0.78000
C395        C  0.95671808  0.30764722  0.41890816     0.82800
N396        N  0.97074278  0.30182489  0.39754328    -0.79700
C397        C  0.56241234  0.88234377  0.39275439     0.80300
N398        N  0.59169439  0.92638111  0.39654177    -0.78000
C399        C  0.58329940  0.94840417  0.41334052     0.82700
N400        N  0.54591578  0.92604609  0.42657736    -0.78000
C401        C  0.51687647  0.88246971  0.42305571     0.82800
N402        N  0.52501328  0.86078582  0.40616217    -0.79700
C403        C  0.77974958  0.18639805  0.45353644     0.80300
N404        N  0.75109675  0.14773429  0.44252100    -0.78000
C405        C  0.70939279  0.12079726  0.45091680     0.82700
N406        N  0.69625266  0.13298240  0.47060529    -0.78000
C407        C  0.72484956  0.17159992  0.48190023     0.82800
N408        N  0.76655083  0.19806660  0.47331494    -0.79700
C409        C  0.29322804  0.33136757  0.39093478     0.80300
N410        N  0.29861437  0.29895908  0.39954056    -0.78000
C411        C  0.31882209  0.30440532  0.42090397     0.82700
N412        N  0.33209015  0.34139195  0.43373523    -0.78000
C413        C  0.32660957  0.37335376  0.42543057     0.82800
N414        N  0.30751578  0.36859052  0.40396678    -0.79700
C415        C  0.29004901  0.89338526  0.39743955     0.80300
N416        N  0.30627144  0.87224441  0.40946706    -0.78000
C417        C  0.32532846  0.88690712  0.43104571     0.82700
N418        N  0.32852400  0.92320733  0.44060165    -0.78000
C419        C  0.31240257  0.94483697  0.42890365     0.82800
N420        N  0.29335334  0.92980230  0.40718780    -0.79700
C421        C  0.34889717  0.11187150  0.46712591     0.80300
N422        N  0.33783029  0.13855145  0.45638795    -0.78000
C423        C  0.35240576  0.17948127  0.46509059     0.82700
N424        N  0.37858827  0.19382130  0.48475552    -0.78000
C425        C  0.38977904  0.16750453  0.49571232     0.82800
N426        N  0.37492857  0.12670183  0.48679038    -0.79700
N427        N  0.40665463  0.85454920  0.44638494    -0.36600
N428        N  0.43844051  0.80236968  0.46839481    -0.57100
N429        N  0.35896467  0.75711168  0.49735610    -0.36600
N430        N  0.32528989  0.80645224  0.47368004    -0.57100
C431        C  0.44249846  0.86663871  0.43268144     0.27000
C432        C  0.38273191  0.86858100  0.43537714     0.27000
C433        C  0.37616451  0.73196473  0.50148729     0.27000
C434        C  0.31569680  0.73294112  0.50364082     0.27000
C435        C  0.47456812  0.83003998  0.45531684     0.35600
C436        C  0.44983044  0.77943085  0.48236052     0.35600
C437        C  0.31801301  0.83584207  0.46312064     0.35600
C438        C  0.29243253  0.78389565  0.48967292     0.35600
C439        C  0.44181082  0.88934199  0.41291486    -0.21800
C440        C  0.40419946  0.89058641  0.41460644    -0.21800
C441        C  0.34375244  0.69174251  0.51094280    -0.21800
C442        C  0.30578097  0.69236966  0.51229611    -0.21800
C443        C  0.50892860  0.82424912  0.46079206    -0.22900
C444        C  0.49321324  0.79210125  0.47789833    -0.22900
C445        C  0.27996509  0.83167349  0.47232417    -0.22900
C446        C  0.26376031  0.79879471  0.48913041    -0.22900
C447        C  0.47655384  0.85893423  0.43764092    -0.18300
C448        C  0.34299754  0.86360893  0.44390713    -0.18300
C449        C  0.28531087  0.74692805  0.50273871    -0.18200
C450        C  0.42057719  0.74465717  0.49758341    -0.18200
H451        H  0.46595744  0.90362622  0.39869658     0.14700
H452        H  0.39409475  0.90621834  0.40196299     0.14700
H453        H  0.34697767  0.66461734  0.51628091     0.14700
H454        H  0.27458176  0.66584904  0.51910394     0.14700
H455        H  0.54173166  0.84096072  0.45303196     0.12900
H456        H  0.51139138  0.77895630  0.48576406     0.12900
H457        H  0.26477852  0.84960062  0.46708020     0.12900
H458        H  0.23359668  0.78648380  0.49925325     0.12900
H459        H  0.40005969  0.83926556  0.46277704     0.26200
H460        H  0.37621413  0.78966067  0.49166104     0.26200
C461        C  0.43638125  0.71776748  0.50811685     0.80300
N462        N  0.46189600  0.73178236  0.52795564    -0.78000
C463        C  0.47783410  0.70786108  0.53709121     0.82700
N464        N  0.46850632  0.67008345  0.52613904    -0.78000
C465        C  0.44362219  0.65644740  0.50610655     0.82800
N466        N  0.42728134  0.68006663  0.49725023    -0.79700
N467        N  0.05165988  0.49306402  0.44058292    -0.36600
N468        N  0.08857468  0.56816326  0.47301595    -0.57100
N469        N  0.13674050  0.53415575  0.49796684    -0.36600
N470        N  0.09814226  0.45803893  0.46625231    -0.57100
C471        C  0.03103491  0.51278236  0.43212235     0.27000
C472        C  0.03477907  0.45409614  0.42915690     0.27000
C473        C  0.15560781  0.57446891  0.50821511     0.27000
C474        C  0.15970019  0.51588105  0.50502144     0.27000
C475        C  0.06313162  0.57774854  0.45993411     0.35600
C476        C  0.11016927  0.60094864  0.48908466     0.35600
C477        C  0.07534751  0.42454545  0.45076163     0.35600
C478        C  0.12228644  0.44751057  0.47979103     0.35600
C479        C  0.00149415  0.48645749  0.41450208    -0.21800
C480        C  0.00376987  0.44950093  0.41267325    -0.21800
C481        C  0.18979784  0.58095468  0.52282703    -0.21800
C482        C  0.19257716  0.54431276  0.52070748    -0.21800
C483        C  0.06808749  0.61669521  0.46801988    -0.22900
C484        C  0.09793075  0.63143507  0.48637334    -0.22900
C485        C  0.08519342  0.39245890  0.45444035    -0.22900
C486        C  0.11499996  0.40705671  0.47274623    -0.22900
C487        C  0.03682185  0.55307606  0.44020495    -0.18300
C488        C  0.04528729  0.42176886  0.43348622    -0.18300
C489        C  0.15217838  0.47442100  0.49779585    -0.18200
C490        C  0.14354279  0.60602337  0.50478102    -0.18200
H491        H  0.97972367  0.49265821  0.40433971     0.14700
H492        H  0.98423672  0.42204847  0.40074919     0.14700
H493        H  0.21017311  0.60886934  0.53426689     0.14700
H494        H  0.21617356  0.53924978  0.52975479     0.14700
H495        H  0.05259057  0.63334819  0.46112237     0.12900
H496        H  0.10988032  0.66165119  0.49627389     0.12900
H497        H  0.07246127  0.36179915  0.44483925     0.12900
H498        H  0.12981444  0.38992019  0.47990881     0.12900
H499        H  0.07564649  0.50522419  0.45347477     0.26200
H500        H  0.10954997  0.51989892  0.48699713     0.26200
C501        C  0.19035437  0.70420694  0.54455754     0.80300
N502        N  0.23025664  0.73147899  0.53397539    -0.78000
C503        C  0.24153442  0.71829605  0.51404487     0.82700
N504        N  0.21285076  0.67792515  0.50469800    -0.78000
C505        C  0.17315174  0.65037921  0.51517792     0.82800
N506        N  0.16183667  0.66348269  0.53514180    -0.79700
N507        N  0.41386776  0.48724209  0.44579162    -0.36600
N508        N  0.44911141  0.57243690  0.46896356    -0.57100
N509        N  0.36231243  0.53810410  0.49150231    -0.36600
N510        N  0.32745679  0.45270527  0.46912394    -0.57100
C511        C  0.45444147  0.50986790  0.43551632     0.27000
C512        C  0.38986850  0.44795424  0.43454200     0.27000
C513        C  0.38596361  0.57799999  0.50213168     0.27000
C514        C  0.32282842  0.51477388  0.50288092     0.27000
C515        C  0.48581995  0.58240894  0.45667795     0.35600
C516        C  0.45854891  0.60937291  0.48065099     0.35600
C517        C  0.31667297  0.41722603  0.45561417     0.35600
C518        C  0.29081310  0.44263321  0.48153687     0.35600
C519        C  0.45672696  0.48390301  0.41799402    -0.21800
C520        C  0.41609227  0.44503653  0.41732272    -0.21800
C521        C  0.36096187  0.58024251  0.52034494    -0.21800
C522        C  0.32127308  0.54044591  0.52082447    -0.21800
C523        C  0.51913424  0.62603818  0.46080734    -0.22900
C524        C  0.50177410  0.64317499  0.47587927    -0.22900
C525        C  0.27290425  0.38398541  0.45974337    -0.22900
C526        C  0.25653057  0.40010383  0.47612840    -0.22900
C527        C  0.48935759  0.55354454  0.44098850    -0.18300
C528        C  0.34495751  0.41454787  0.43902387    -0.18300
C529        C  0.28750069  0.47141306  0.49736776    -0.18200
C530        C  0.42905331  0.61306596  0.49578763    -0.18200
H531        H  0.48453465  0.49229994  0.40654161     0.14700
H532        H  0.40685918  0.41787274  0.40528724     0.14700
H533        H  0.37037154  0.60767206  0.53220964     0.14700
H534        H  0.29433806  0.53144203  0.53307591     0.14700
H535        H  0.55229432  0.64388710  0.45346985     0.12900
H536        H  0.51908177  0.67663831  0.48261688     0.12900
H537        H  0.25445710  0.35165964  0.45157470     0.12900
H538        H  0.22309944  0.38261266  0.48308141     0.12900
H539        H  0.40316778  0.49774449  0.45976862     0.26200
H540        H  0.37195409  0.52841256  0.47667026     0.26200
C541        C  0.17946487  0.45927298  0.50857403     0.80300
N542        N  0.16362758  0.43068488  0.52716484    -0.78000
C543        C  0.18790858  0.41528554  0.53641243     0.82700
N544        N  0.22805842  0.42829528  0.52675474    -0.78000
C545        C  0.24371493  0.45647696  0.50794396     0.82800
N546        N  0.21943660  0.47203890  0.49899280    -0.79700
C547        C  0.57651884  0.60769096  0.39477052     0.80300
N548        N  0.53743864  0.59057574  0.40651670    -0.78000
C549        C  0.53157633  0.57134941  0.42808474     0.82700
N550        N  0.56463359  0.56866653  0.43782100    -0.78000
C551        C  0.60376953  0.58520948  0.42618110     0.82800
N552        N  0.60962824  0.60501854  0.40468668    -0.79700
C553        C  0.00682794  0.60539115  0.39344612     0.80300
N554        N  0.02809719  0.58944512  0.40563031    -0.78000
C555        C  0.01330328  0.57033450  0.42718416     0.82700
N556        N  0.97690531  0.56708333  0.43668951    -0.78000
C557        C  0.95509595  0.58298876  0.42494382     0.82800
N558        N  0.97051576  0.60251204  0.40331133    -0.79700
C559        C  0.79307284  0.54865521  0.47037846     0.80300
N560        N  0.77814513  0.52259373  0.48996555    -0.78000
C561        C  0.73906570  0.51084640  0.50022001     0.82700
N562        N  0.71414302  0.52505309  0.49061383    -0.78000
C563        C  0.72834515  0.55117627  0.47091761     0.82800
N564        N  0.76764268  0.56244547  0.46070894    -0.79700
O565        O  0.08827283  0.28408754  0.29741662    -0.74400
O566        O  0.16192573  0.27949967  0.24932426    -0.74400
O567        O  0.16224661  0.28093977  0.29802207    -0.74500
O568        O  0.08851867  0.28327288  0.24920603    -0.74500
O569        O  0.13075653  0.35664917  0.24888267    -0.74500
O570        O  0.20392698  0.35431471  0.29729798    -0.74400
O571        O  0.20392926  0.35291699  0.24890205    -0.74400
O572        O  0.13024742  0.35751260  0.29686135    -0.74500
Ni573      Ni  0.12383457  0.27929362  0.27352980     1.25400
Ni574      Ni  0.16875548  0.35789160  0.27298820     1.25400
C575        C  0.09697601  0.32161328  0.30502794     0.87800
C576        C  0.19420266  0.31545435  0.24055874     0.87700
C577        C  0.19476929  0.31744710  0.30615835     0.87800
C578        C  0.09761905  0.32058792  0.24096177     0.87900
O579        O  0.54685071  0.76207285  0.30296371    -0.74400
O580        O  0.55108984  0.69519825  0.25139082    -0.74400
O581        O  0.54954142  0.68903957  0.29924665    -0.74500
O582        O  0.54873499  0.76916560  0.25470834    -0.74500
O583        O  0.62235678  0.80950866  0.25453977    -0.74500
O584        O  0.62312638  0.73068904  0.30042242    -0.74400
O585        O  0.62465089  0.73503772  0.25207941    -0.74400
O586        O  0.62055774  0.80461510  0.30305135    -0.74500
Ni587      Ni  0.54652979  0.72751270  0.27697740     1.25400
Ni588      Ni  0.62536671  0.77147867  0.27750350     1.25400
C589        C  0.58289571  0.79380344  0.31184210     0.87800
C590        C  0.58826895  0.70347462  0.24326932     0.87700
C591        C  0.58635796  0.69731258  0.30777273     0.87800
C592        C  0.58529620  0.80224488  0.24691264     0.87900
C593        C  0.00675159  0.32987878  0.15850166     0.80300
N594        N  0.02903771  0.36971185  0.14743922    -0.78000
C595        C  0.01385693  0.37600335  0.12683507     0.82700
N596        N  0.97648738  0.34247356  0.11701757    -0.78000
C597        C  0.95390869  0.30236592  0.12764561     0.82800
N598        N  0.96891215  0.29617698  0.14858751    -0.79700
C599        C  0.56590054  0.89423290  0.16828971     0.80300
N600        N  0.52763338  0.86830140  0.15603765    -0.78000
C601        C  0.52080522  0.88274743  0.13526773     0.82700
N602        N  0.55173256  0.92265015  0.12678746    -0.78000
C603        C  0.58992620  0.94900797  0.13857105     0.82800
N604        N  0.59730096  0.93462919  0.15942151    -0.79700
C605        C  0.78096497  0.17981666  0.08895931     0.80300
N606        N  0.76838720  0.19311177  0.06956236    -0.78000
C607        C  0.72671508  0.16733163  0.06071934     0.82700
N608        N  0.69779923  0.12821786  0.07139882    -0.78000
C609        C  0.71000681  0.11467328  0.09078712     0.82800
N610        N  0.75166183  0.14065010  0.09926651    -0.79700
C611        C  0.28907114  0.32711893  0.15448374     0.80300
N612        N  0.30838509  0.36698389  0.14346100    -0.78000
C613        C  0.32919326  0.37362849  0.12230088     0.82700
N614        N  0.33047678  0.34026309  0.11196969    -0.78000
C615        C  0.31095683  0.30000568  0.12250779     0.82800
N616        N  0.29018063  0.29354853  0.14388265    -0.79700
C617        C  0.29440975  0.89526470  0.15652468     0.80300
N618        N  0.29554829  0.93014974  0.14614686    -0.78000
C619        C  0.31512422  0.94564528  0.12452321     0.82700
N620        N  0.33322918  0.92532797  0.11322579    -0.78000
C621        C  0.33233381  0.89054531  0.12348042     0.82800
N622        N  0.31303339  0.87581920  0.14506601    -0.79700
C623        C  0.34798167  0.10801346  0.08115500     0.80300
N624        N  0.37676267  0.12470563  0.06253795    -0.78000
C625        C  0.39096826  0.16549524  0.05377258     0.82700
N626        N  0.37647994  0.18980714  0.06378364    -0.78000
C627        C  0.34811551  0.17405073  0.08254246     0.82800
N628        N  0.33409143  0.13314338  0.09125506    -0.79700
C629        C  0.19633649  0.71088786  0.01323769     0.80300
N630        N  0.16956350  0.67088805  0.02372857    -0.78000
C631        C  0.18467470  0.65825507  0.04216947     0.82700
N632        N  0.22649258  0.68548853  0.05011674    -0.78000
C633        C  0.25350879  0.72532380  0.03975273     0.82800
N634        N  0.23840577  0.73815729  0.02131648    -0.79700
N635        N  0.04880769  0.49124927  0.10982220    -0.36600
N636        N  0.09670838  0.45834580  0.08409197    -0.57100
N637        N  0.14856656  0.54304256  0.05963981    -0.36600
N638        N  0.09585915  0.57348261  0.08255661    -0.57100
C639        C  0.02623786  0.44893012  0.11739463     0.27000
C640        C  0.02606345  0.50960949  0.11684106     0.27000
C641        C  0.16407423  0.52055311  0.04849078     0.27000
C642        C  0.16391084  0.58130213  0.04774592     0.27000
C643        C  0.07390967  0.42451470  0.09941563     0.35600
C644        C  0.12589149  0.45139493  0.07295689     0.35600
C645        C  0.07312277  0.58381045  0.09752706     0.35600
C646        C  0.12524268  0.61099094  0.07091006     0.35600
C647        C  0.98885147  0.44038242  0.12979324    -0.21800
C648        C  0.98876604  0.47867531  0.12946515    -0.21800
C649        C  0.19040717  0.54527135  0.02944702    -0.21800
C650        C  0.19028447  0.58354947  0.02896167    -0.21800
C651        C  0.08811083  0.39541049  0.09768120    -0.22900
C652        C  0.12109977  0.41248665  0.08095969    -0.22900
C653        C  0.08751184  0.62801010  0.09500668    -0.22900
C654        C  0.12051555  0.64521712  0.07818198    -0.22900
C655        C  0.03924242  0.41831454  0.11431887    -0.18300
C656        C  0.03888338  0.55392694  0.11308869    -0.18300
C657        C  0.15621281  0.61501731  0.05372538    -0.18200
C658        C  0.15634933  0.47902099  0.05534540    -0.18200
H659        H  0.96432991  0.40985501  0.13838539     0.14700
H660        H  0.96413392  0.48323361  0.13772540     0.14700
H661        H  0.20792004  0.53665021  0.01715177     0.14700
H662        H  0.20767263  0.61003177  0.01618735     0.14700
H663        H  0.07599855  0.36499724  0.10742580     0.12900
H664        H  0.13947326  0.39789580  0.07537541     0.12900
H665        H  0.07561955  0.64606865  0.10437557     0.12900
H666        H  0.13908951  0.67914578  0.07212198     0.12900
H667        H  0.07907800  0.50727997  0.10135154     0.26200
H668        H  0.13012757  0.53373094  0.07505156     0.26200
C669        C  0.45022700  0.72781014  0.04528834     0.80300
N670        N  0.43694796  0.68760692  0.05451476    -0.78000
C671        C  0.45114520  0.66268651  0.04477139     0.82700
N672        N  0.47848569  0.67791531  0.02560366    -0.78000
C673        C  0.49187389  0.71814119  0.01626610     0.82800
N674        N  0.47759109  0.74299811  0.02612641    -0.79700
N675        N  0.41193677  0.85412882  0.11124835    -0.36600
N676        N  0.44664960  0.80514410  0.08810510    -0.57100
N677        N  0.37156766  0.76562918  0.05594916    -0.36600
N678        N  0.33570868  0.81245500  0.08033067    -0.57100
C679        C  0.44567410  0.86392187  0.12604834     0.27000
C680        C  0.38839210  0.86967192  0.12119297     0.27000
C681        C  0.38983135  0.74182770  0.05077821     0.27000
C682        C  0.32911677  0.74222572  0.04828033     0.27000
C683        C  0.48133733  0.83201050  0.10216710     0.35600
C684        C  0.46112177  0.78723743  0.07231380     0.35600
C685        C  0.32799467  0.84153366  0.09097059     0.35600
C686        C  0.30430743  0.79128515  0.06353544     0.35600
C687        C  0.44392453  0.88647354  0.14564081    -0.21800
C688        C  0.40794672  0.89020882  0.14256087    -0.21800
C689        C  0.35910140  0.70359968  0.03896100    -0.21800
C690        C  0.32083429  0.70367350  0.03749119    -0.21800
C691        C  0.51805329  0.83081408  0.09542162    -0.22900
C692        C  0.50519606  0.80238277  0.07649110    -0.22900
C693        C  0.29117370  0.83859716  0.08092111    -0.22900
C694        C  0.27603176  0.80664330  0.06369698    -0.22900
C695        C  0.48009307  0.85647040  0.12151303    -0.18300
C696        C  0.35101291  0.86758722  0.11105106    -0.18300
C697        C  0.29799163  0.75516908  0.04991900    -0.18200
C698        C  0.43380649  0.75420074  0.05579186    -0.18200
H699        H  0.46682372  0.89983382  0.16038728     0.14700
H700        H  0.39800599  0.90695376  0.15456555     0.14700
H701        H  0.36366944  0.67825375  0.03200340     0.14700
H702        H  0.29055649  0.67831645  0.02909131     0.14700
H703        H  0.55059810  0.84825475  0.10342960     0.12900
H704        H  0.52571049  0.79335268  0.06715892     0.12900
H705        H  0.27581407  0.85649995  0.08591481     0.12900
H706        H  0.24689429  0.79548820  0.05294675     0.12900
H707        H  0.40691083  0.83984443  0.09469440     0.26200
H708        H  0.38772701  0.79684542  0.06343769     0.26200
N709        N  0.41683836  0.49004249  0.10451257    -0.36600
N710        N  0.33138331  0.45684019  0.08112948    -0.57100
N711        N  0.36780221  0.54302676  0.05809229    -0.36600
N712        N  0.45311542  0.57632606  0.08144544    -0.57100
C713        C  0.39299367  0.44979074  0.11488608     0.27000
C714        C  0.45726928  0.51243427  0.11479093     0.27000
C715        C  0.32640784  0.52177592  0.04907495     0.27000
C716        C  0.39022952  0.58462347  0.04937098     0.27000
C717        C  0.32008162  0.42062658  0.09411364     0.35600
C718        C  0.29482484  0.44798375  0.06919237     0.35600
C719        C  0.49001593  0.58474526  0.09286342     0.35600
C720        C  0.46425819  0.61255956  0.06846330     0.35600
C721        C  0.41911570  0.44610007  0.13171411    -0.21800
C722        C  0.45949976  0.48551817  0.13169424    -0.21800
C723        C  0.32251083  0.55027452  0.03411608    -0.21800
C724        C  0.36266539  0.58974639  0.03428487    -0.21800
C725        C  0.27586793  0.38835837  0.09035962    -0.22900
C726        C  0.25988114  0.40567885  0.07464652    -0.22900
C727        C  0.52507100  0.62672676  0.08697825    -0.22900
C728        C  0.50876127  0.64434600  0.07161757    -0.22900
C729        C  0.34835657  0.41626740  0.10984578    -0.18300
C730        C  0.49242089  0.55622860  0.10936524    -0.18300
C731        C  0.43482571  0.61818066  0.05438198    -0.18200
C732        C  0.29171795  0.47770094  0.05404067    -0.18200
H733        H  0.40998842  0.41802784  0.14300184     0.14700
H734        H  0.48731944  0.49339479  0.14292095     0.14700
H735        H  0.29380659  0.54340240  0.02398938     0.14700
H736        H  0.37081288  0.61863451  0.02404110     0.14700
H737        H  0.25682971  0.35590523  0.09837076     0.12900
H738        H  0.22615846  0.38913337  0.06826496     0.12900
H739        H  0.55884754  0.64320118  0.09325911     0.12900
H740        H  0.52759321  0.67693858  0.06376579     0.12900
H741        H  0.40633361  0.50140774  0.09097978     0.26200
H742        H  0.37982609  0.53004401  0.06977568     0.26200
C743        C  0.18327089  0.46411416  0.04412511     0.80300
N744        N  0.22369000  0.47788023  0.05312803    -0.78000
C745        C  0.24801515  0.46265145  0.04391160     0.82700
N746        N  0.23197413  0.43365581  0.02557135    -0.78000
C747        C  0.19150866  0.41985985  0.01640159     0.82800
N748        N  0.16702449  0.43499037  0.02579516    -0.79700
C749        C  0.57627340  0.60923602  0.15708783     0.80300
N750        N  0.53821320  0.59245994  0.14449136    -0.78000
C751        C  0.53409714  0.57439293  0.12280044     0.82700
N752        N  0.56846959  0.57354182  0.11344073    -0.78000
C753        C  0.60717655  0.59061727  0.12555326     0.82800
N754        N  0.61085484  0.60855397  0.14742846    -0.79700
C755        C  0.00990716  0.60680490  0.15982440     0.80300
N756        N  0.97297077  0.60287349  0.15051950    -0.78000
C757        C  0.95680849  0.58256954  0.12928500     0.82700
N758        N  0.97822775  0.56637557  0.11735472    -0.78000
C759        C  0.01506081  0.57019826  0.12651875     0.82800
N760        N  0.03080592  0.59030166  0.14775177    -0.79700
C761        C  0.79670738  0.55092928  0.08501897     0.80300
N762        N  0.78084979  0.52119043  0.06695784    -0.78000
C763        C  0.74098933  0.50731377  0.05720098     0.82700
N764        N  0.71658402  0.52294920  0.06575079    -0.78000
C765        C  0.73165886  0.55268762  0.08377932     0.82800
N766        N  0.77179724  0.56633635  0.09355655    -0.79700
O767        O  0.09453815  0.73564120  0.25192940    -0.74400
O768        O  0.17072336  0.81366735  0.30094162    -0.74400
O769        O  0.17259372  0.81391096  0.25230793    -0.74500
O770        O  0.09255011  0.73570893  0.30015065    -0.74500
O771        O  0.12799404  0.70034225  0.30084854    -0.74500
O772        O  0.20824889  0.77870116  0.25290858    -0.74400
O773        O  0.20599843  0.77810026  0.30138604    -0.74400
O774        O  0.13030790  0.70053104  0.25272631    -0.74500
Ni775      Ni  0.13141331  0.77606623  0.27629077     1.25400
Ni776      Ni  0.16946804  0.73825060  0.27698767     1.25400
C777        C  0.10003336  0.70527316  0.24416080     0.87800
C778        C  0.20030756  0.80791351  0.30973761     0.87700
C779        C  0.20293352  0.80858267  0.24418071     0.87800
C780        C  0.09740739  0.70554527  0.30875945     0.87900
C781        C  0.02840815  0.62989201  0.18257490    -0.00100
C782        C  0.04754307  0.61386671  0.19786898    -0.12000
C783        C  0.06883560  0.63635359  0.21871890     0.02100
C784        C  0.07242115  0.67666588  0.22427204    -0.00200
C785        C  0.05148460  0.69158753  0.20945489    -0.11900
C786        C  0.02944941  0.66857056  0.18882276     0.02000
H787        H  0.04587136  0.58353560  0.19348716     0.15000
H788        H  0.05367037  0.72227590  0.21347612     0.15000
C789        C  0.01054462  0.68688277  0.17377406     0.36600
C790        C  0.08574587  0.61658095  0.23415794     0.36500
N791        N  0.99526558  0.70142079  0.16171415    -0.43700
N792        N  0.09894619  0.60042136  0.24653120    -0.43700
C793        C  0.83998111  0.56464671  0.09579054    -0.00100
C794        C  0.84670123  0.57449288  0.12017163    -0.12000
C795        C  0.88490327  0.58184010  0.13159257     0.02100
C796        C  0.91724879  0.57914785  0.11843713    -0.00200
C797        C  0.91153341  0.57212223  0.09380302    -0.11900
C798        C  0.87380116  0.56525680  0.08243497     0.02000
H799        H  0.82127365  0.57477273  0.13056359     0.15000
H800        H  0.93668814  0.57177282  0.08318520     0.15000
C801        C  0.87127141  0.55953909  0.05693287     0.36600
C802        C  0.88883349  0.59047309  0.15683727     0.36500
N803        N  0.86937496  0.55495317  0.03651462    -0.43700
N804        N  0.89186644  0.59762898  0.17704062    -0.43700
C805        C  0.64370909  0.58766173  0.11477174    -0.00100
C806        C  0.63915455  0.57463820  0.09084055    -0.12000
C807        C  0.66781710  0.56445246  0.08017564     0.02100
C808        C  0.70344403  0.56829031  0.09330228    -0.00200
C809        C  0.71047439  0.58499760  0.11660315    -0.11900
C810        C  0.68097110  0.59427153  0.12750859     0.02000
H811        H  0.61189973  0.57076795  0.08035828     0.15000
H812        H  0.73791468  0.58876571  0.12686251     0.15000
C813        C  0.68907284  0.60817808  0.15204937     0.36600
C814        C  0.65847744  0.54910110  0.05586002     0.36500
N815        N  0.69612603  0.61911297  0.17174357    -0.43700
N816        N  0.65020995  0.53634723  0.03649263    -0.43700
C817        C  0.23008621  0.83559034  0.22343305    -0.00100
C818        C  0.21318613  0.85481060  0.20863326    -0.12000
C819        C  0.23421172  0.87578945  0.18725152     0.02100
C820        C  0.27317531  0.87787290  0.18012636    -0.00200
C821        C  0.29122077  0.86051667  0.19540653    -0.11900
C822        C  0.27048371  0.83996146  0.21690998     0.02000
H823        H  0.18229697  0.85193046  0.21324873     0.15000
H824        H  0.32171687  0.86281061  0.19045973     0.15000
C825        C  0.29200637  0.82446958  0.23199711     0.36600
C826        C  0.21337335  0.89227166  0.17235380     0.36500
N827        N  0.30955943  0.81239492  0.24409247    -0.43700
N828        N  0.19661271  0.90544014  0.16042732    -0.43700
C829        C  0.31832774  0.98525288  0.11345658    -0.00100
C830        C  0.32416176  0.99116628  0.08866603    -0.12000
C831        C  0.33176988  0.02975278  0.07759898     0.02100
C832        C  0.33441876  0.06409735  0.09140036    -0.00200
C833        C  0.32606865  0.05715231  0.11589939    -0.11900
C834        C  0.31800646  0.01847273  0.12697548     0.02000
H835        H  0.32306752  0.96560474  0.07780062     0.15000
H836        H  0.32758861  0.08287752  0.12672940     0.15000
C837        C  0.31191617  0.01540089  0.15242986     0.36600
C838        C  0.33558701  0.03263506  0.05199551     0.36500
N839        N  0.30703669  0.01331417  0.17283570    -0.43700
N840        N  0.33840030  0.03497509  0.03148014    -0.43700
C841        C  0.31533744  0.26469808  0.11154205    -0.00100
C842        C  0.31407180  0.23241238  0.12629564    -0.12000
C843        C  0.32315307  0.20152464  0.11736494     0.02100
C844        C  0.33350015  0.20228937  0.09302123    -0.00200
C845        C  0.33264197  0.23318664  0.07809865    -0.11900
C846        C  0.32381877  0.26410816  0.08695976     0.02000
H847        H  0.30779083  0.23236236  0.14516517     0.15000
H848        H  0.33954255  0.23367401  0.05926940     0.15000
C849        C  0.32388881  0.29453265  0.07010229     0.36600
C850        C  0.32397625  0.17142612  0.13402118     0.36500
N851        N  0.32431327  0.31863085  0.05627264    -0.43700
N852        N  0.32444312  0.14769017  0.14775343    -0.43700
C853        C  0.67860401  0.07252463  0.10316168    -0.00100
C854        C  0.69546455  0.05573666  0.11979217    -0.12000
C855        C  0.66759874  0.01631766  0.13212564     0.02100
C856        C  0.62165510  0.99283614  0.12803940    -0.00200
C857        C  0.60479821  0.01009924  0.11182669    -0.11900
C858        C  0.63241273  0.04902287  0.09933205     0.02000
H859        H  0.73078257  0.07301415  0.12298680     0.15000
H860        H  0.56945483  0.99287531  0.10863547     0.15000
C861        C  0.61165680  0.06350827  0.08293868     0.36600
C862        C  0.68730431  0.00009719  0.14806526     0.36500
N863        N  0.59462326  0.07462234  0.06980103    -0.43700
N864        N  0.70294460  0.98695023  0.16085898    -0.43700
C865        C  0.91169504  0.26712445  0.11714786    -0.00100
C866        C  0.87736656  0.23775480  0.13236553    -0.12000
C867        C  0.83482844  0.20827126  0.12363487     0.02100
C868        C  0.82597577  0.20798287  0.09904253    -0.00200
C869        C  0.86098959  0.23570701  0.08368158    -0.11900
C870        C  0.90360191  0.26479527  0.09241218     0.02000
H871        H  0.88322672  0.23912306  0.15134734     0.15000
H872        H  0.85506309  0.23475384  0.06472719     0.15000
C873        C  0.93836974  0.29144833  0.07548998     0.36600
C874        C  0.80089504  0.18054265  0.14070290     0.36500
N875        N  0.96625139  0.31281142  0.06196134    -0.43700
N876        N  0.77412294  0.15840520  0.15457779    -0.43700
C877        C  0.58013819  0.62924588  0.18082688    -0.00100
C878        C  0.62185189  0.66330641  0.18893574    -0.12000
C879        C  0.62614450  0.68660999  0.20988817     0.02100
C880        C  0.58791457  0.67629943  0.22304656    -0.00200
C881        C  0.54681685  0.63976691  0.21587996    -0.11900
C882        C  0.54257871  0.61634427  0.19517232     0.02000
H883        H  0.65116292  0.67286588  0.17846804     0.15000
H884        H  0.51724820  0.62983377  0.22619180     0.15000
C885        C  0.49900113  0.57930900  0.18920581     0.36600
C886        C  0.67011354  0.72104580  0.21705537     0.36500
N887        N  0.46406440  0.54981039  0.18437690    -0.43700
N888        N  0.70552883  0.74830546  0.22278395    -0.43700
C889        C  0.57340394  0.87716181  0.19056389    -0.00100
C890        C  0.61407079  0.88097642  0.19420632    -0.12000
C891        C  0.61967771  0.85855884  0.21295007     0.02100
C892        C  0.58386989  0.83151928  0.22854359    -0.00200
C893        C  0.54425981  0.83050057  0.22572133    -0.11900
C894        C  0.53896775  0.85323926  0.20716111     0.02000
H895        H  0.64085824  0.89965965  0.18164697     0.15000
H896        H  0.51691711  0.81137070  0.23790640     0.15000
C897        C  0.49813291  0.85226121  0.20574526     0.36600
C898        C  0.66178364  0.86226711  0.21471513     0.36500
N899        N  0.46571393  0.85201217  0.20456802    -0.43700
N900        N  0.69573517  0.86560111  0.21591455    -0.43700
C901        C  0.02461823  0.32447846  0.18109383    -0.00100
C902        C  0.04938022  0.36196790  0.19545609    -0.12000
C903        C  0.07213144  0.36126764  0.21538876     0.02100
C904        C  0.07040663  0.32207124  0.22150325    -0.00200
C905        C  0.04363652  0.28383760  0.20787329    -0.11900
C906        C  0.02080365  0.28464189  0.18786160     0.02000
H907        H  0.05173478  0.39252582  0.19082748     0.15000
H908        H  0.04170596  0.25343592  0.21231974     0.15000
C909        C  0.99567472  0.24463487  0.17412651     0.36600
C910        C  0.09721507  0.40168781  0.22885882     0.36500
N911        N  0.97547604  0.21232285  0.16330712    -0.43700
N912        N  0.11738159  0.43430706  0.23943357    -0.43700
C913        C  0.21988703  0.31438793  0.21991997    -0.00100
C914        C  0.26288409  0.35099812  0.21599170    -0.12000
C915        C  0.28669383  0.35429581  0.19547205     0.02100
C916        C  0.26727730  0.32107018  0.17791195    -0.00200
C917        C  0.22536576  0.28319092  0.18231606    -0.11900
C918        C  0.20161211  0.27950791  0.20308189     0.02000
H919        H  0.27798803  0.37745929  0.22895935     0.15000
H920        H  0.21032680  0.25725272  0.16904933     0.15000
C921        C  0.15768123  0.24072972  0.20588017     0.36600
C922        C  0.33169926  0.39149829  0.19320397     0.36500
N923        N  0.12247864  0.20969397  0.20821557    -0.43700
N924        N  0.36794263  0.42093646  0.19139730    -0.43700
C925        C  0.02450121  0.62702740  0.36999072    -0.00100
C926        C  0.02086772  0.66263951  0.36317038    -0.12000
C927        C  0.04247320  0.68760347  0.34274433     0.02100
C928        C  0.06860763  0.67710680  0.32867548    -0.00200
C929        C  0.06950882  0.63961205  0.33470311    -0.11900
C930        C  0.04763081  0.61452493  0.35488241     0.02000
H931        H  0.00262620  0.67221141  0.37434241     0.15000
H932        H  0.08799982  0.63000878  0.32377105     0.15000
C933        C  0.04907671  0.57564972  0.35932084     0.36600
C934        C  0.03853742  0.72472933  0.33735323     0.36500
N935        N  0.05023167  0.54447340  0.36274942    -0.43700
N936        N  0.03547465  0.75447521  0.33286507    -0.43700
C937        C  0.91467953  0.57797784  0.43610089    -0.00100
C938        C  0.90744359  0.56726858  0.46040500    -0.12000
C939        C  0.86885713  0.55819996  0.47193338     0.02100
C940        C  0.83587781  0.56027782  0.45922170    -0.00200
C941        C  0.84363050  0.57257205  0.43510211    -0.11900
C942        C  0.88233664  0.58127814  0.42347469     0.02000
H943        H  0.93199983  0.56538819  0.47066653     0.15000
H944        H  0.81880446  0.57429242  0.42502115     0.15000
C945        C  0.88683323  0.59211728  0.39850488     0.36600
C946        C  0.86476324  0.54691175  0.49687521     0.36500
N947        N  0.89015045  0.60086967  0.37849942    -0.43700
N948        N  0.86183146  0.53759341  0.51678500    -0.43700
C949        C  0.58622107  0.67017293  0.32775975    -0.00100
C950        C  0.62240779  0.68943264  0.34344042    -0.12000
C951        C  0.62066896  0.66913422  0.36502561     0.02100
C952        C  0.58220592  0.62844490  0.37121910    -0.00200
C953        C  0.54709880  0.60788473  0.35498169    -0.11900
C954        C  0.54886725  0.62800072  0.33333725     0.02000
H955        H  0.65129585  0.72176223  0.33953450     0.15000
H956        H  0.51781965  0.57610916  0.35938089     0.15000
C957        C  0.51170071  0.60453819  0.31739196     0.36600
C958        C  0.65740049  0.69258614  0.38120706     0.36500
N959        N  0.48186218  0.58558324  0.30467161    -0.43700
N960        N  0.68691376  0.71170463  0.39410375    -0.43700
C961        C  0.63909411  0.58091601  0.43710345    -0.00100
C962        C  0.64010241  0.57841970  0.46199332    -0.12000
C963        C  0.67005852  0.57076246  0.47338967     0.02100
C964        C  0.69974180  0.56473209  0.45982936    -0.00200
C965        C  0.70030679  0.56936501  0.43499051    -0.11900
C966        C  0.67031824  0.57716809  0.42355320     0.02000
H967        H  0.61719966  0.58236700  0.47271125     0.15000
H968        H  0.72297566  0.56497878  0.42432983     0.15000
C969        C  0.67055866  0.57815871  0.39789031     0.36600
C970        C  0.67029468  0.57056300  0.49906734     0.36500
N971        N  0.67052848  0.57877215  0.37732301    -0.43700
N972        N  0.67064086  0.57065267  0.51963659    -0.43700
C973        C  0.22667991  0.83435757  0.33064791    -0.00100
C974        C  0.21042695  0.85486056  0.34497896    -0.12000
C975        C  0.23111734  0.87550821  0.36644302     0.02100
C976        C  0.26916049  0.87622249  0.37389687    -0.00200
C977        C  0.28633401  0.85726028  0.35918246    -0.11900
C978        C  0.26572514  0.83654210  0.33782707     0.02000
H979        H  0.18029087  0.85313575  0.33997346     0.15000
H980        H  0.31585643  0.85807588  0.36457500     0.15000
C981        C  0.28551055  0.81762309  0.32388302     0.36600
C982        C  0.21074891  0.89277830  0.38121871     0.36500
N983        N  0.30124950  0.80231245  0.31275293    -0.43700
N984        N  0.19443888  0.90649123  0.39317129    -0.43700
C985        C  0.31736644  0.98561155  0.43928240    -0.00100
C986        C  0.31710188  0.01662989  0.42408747    -0.12000
C987        C  0.32581748  0.05731844  0.43267271     0.02100
C988        C  0.33487915  0.06774601  0.45711144    -0.00200
C989        C  0.33292770  0.03585072  0.47242975    -0.11900
C990        C  0.32425148  0.99529611  0.46389722     0.02000
H991        H  0.31167375  0.00986956  0.40520009     0.15000
H992        H  0.33871336  0.04276679  0.49129662     0.15000
C993        C  0.32251456  0.96447669  0.48106622     0.36600
C994        C  0.32752987  0.08837827  0.41568422     0.36500
N995        N  0.32132466  0.93996241  0.49487503    -0.43700
N996        N  0.32895029  0.11336993  0.40213037    -0.43700
C997        C  0.27136879  0.32636267  0.36775402    -0.00100
C998        C  0.23242236  0.28610971  0.36229122    -0.12000
C999        C  0.20731400  0.28177355  0.34214124     0.02100
C1000       C  0.22183896  0.31805267  0.32650871    -0.00200
C1001       C  0.26223828  0.35760230  0.33145463    -0.11900
C1002       C  0.28671853  0.36214252  0.35182980     0.02000
H1003       H  0.22024936  0.25857632  0.37451571     0.15000
H1004       H  0.27444579  0.38569317  0.31963642     0.15000
C1005       C  0.32752622  0.40398593  0.35592572     0.36600
C1006       C  0.16547601  0.24062504  0.33906778     0.36500
N1007       N  0.36012378  0.43753261  0.35924626    -0.43700
N1008       N  0.13182012  0.20764982  0.33682452    -0.43700
C1009       C  0.32873795  0.27200469  0.43016621    -0.00100
C1010       C  0.29788083  0.22657426  0.42755584    -0.12000
C1011       C  0.30478384  0.19549086  0.43842647     0.02100
C1012       C  0.34320108  0.20997076  0.45233548    -0.00200
C1013       C  0.37465836  0.25541450  0.45405210    -0.11900
C1014       C  0.36809060  0.28623146  0.44302999     0.02000
H1015       H  0.26769945  0.21535560  0.41764272     0.15000
H1016       H  0.40499354  0.26713889  0.46391778     0.15000
C1017       C  0.40298429  0.33234295  0.44484625     0.36600
C1018       C  0.27114765  0.14927731  0.43560400     0.36500
N1019       N  0.43069984  0.36932116  0.44626192    -0.43700
N1020       N  0.24417271  0.11227368  0.43315841    -0.43700
C1021       C  0.56983301  0.85865992  0.37321805    -0.00100
C1022       C  0.60018715  0.88365765  0.35502487    -0.12000
C1023       C  0.60548369  0.86337486  0.33509129     0.02100
C1024       C  0.58035694  0.81702371  0.33300993    -0.00200
C1025       C  0.55100306  0.79178940  0.35139224    -0.11900
C1026       C  0.54570756  0.81185109  0.37141764     0.02000
H1027       H  0.61885769  0.91941308  0.35585161     0.15000
H1028       H  0.53206752  0.75603129  0.35010465     0.15000
C1029       C  0.51552167  0.78312252  0.38971502     0.36600
C1030       C  0.63453500  0.89105592  0.31624861     0.36500
N1031       N  0.49126075  0.75989718  0.40426883    -0.43700
N1032       N  0.65755868  0.91341889  0.30109362    -0.43700
C1033       C  0.61583551  0.99542073  0.41892059    -0.00100
C1034       C  0.66109118  0.01099823  0.41840579    -0.12000
C1035       C  0.69238761  0.05219461  0.42810564     0.02100
C1036       C  0.67839476  0.07866075  0.43862062    -0.00200
C1037       C  0.63347157  0.06431444  0.43761459    -0.11900
C1038       C  0.60234216  0.02346423  0.42762617     0.02000
H1039       H  0.67187498  0.98991661  0.41164286     0.15000
H1040       H  0.62256196  0.08505795  0.44475265     0.15000
C1041       C  0.55686878  0.01146956  0.42629699     0.36600
C1042       C  0.73807344  0.06479192  0.42839129     0.36500
N1043       N  0.52052493  0.00206722  0.42514113    -0.43700
N1044       N  0.77460896  0.07462864  0.42854041    -0.43700
C1045       C  0.06924936  0.32334629  0.32419994    -0.00100
C1046       C  0.04597457  0.28691479  0.33955137    -0.12000
C1047       C  0.02444015  0.28907017  0.35984463     0.02100
C1048       C  0.02557988  0.32821027  0.36497700    -0.00200
C1049       C  0.04613431  0.36346706  0.34883197    -0.11900
C1050       C  0.06777176  0.36141536  0.32858618     0.02000
H1051       H  0.04652822  0.25736930  0.33643420     0.15000
H1052       H  0.04625405  0.39327583  0.35237760     0.15000
C1053       C  0.08865087  0.39922156  0.31293528     0.36600
C1054       C  0.00466135  0.25198978  0.37600731     0.36500
N1055       N  0.10556345  0.42964866  0.30048617    -0.43700
N1056       N  0.98898206  0.22235513  0.38900403    -0.43700
C1057       C  0.82528426  0.21531711  0.44439299    -0.00100
C1058       C  0.85957449  0.23971252  0.46071757    -0.12000
C1059       C  0.90308400  0.26862249  0.45303308     0.02100
C1060       C  0.91286873  0.27362555  0.42842275    -0.00200
C1061       C  0.87881508  0.24811825  0.41218076    -0.11900
C1062       C  0.83530459  0.21948774  0.41984746     0.02000
H1063       H  0.85238083  0.23615286  0.47962038     0.15000
H1064       H  0.88574497  0.25208821  0.39325395     0.15000
C1065       C  0.80151954  0.19744803  0.40191143     0.36600
C1066       C  0.93677562  0.29192074  0.47090846     0.36500
N1067       N  0.77480554  0.18025526  0.38732345    -0.43700
N1068       N  0.96333842  0.31026320  0.48546302    -0.43700
C1069       C  0.27060781  0.90609036  0.93381188    -0.00100
C1070       C  0.27153028  0.90160089  0.95861567    -0.12000
C1071       C  0.24375482  0.86098189  0.96983364     0.02100
C1072       C  0.21439631  0.82355633  0.95614479    -0.00200
C1073       C  0.21172845  0.82847155  0.93153775    -0.11900
C1074       C  0.23947596  0.86913269  0.92028902     0.02000
H1075       H  0.29453060  0.92989152  0.96932833     0.15000
H1076       H  0.18910260  0.79998675  0.92083918     0.15000
C1077       C  0.23699183  0.87104233  0.89474481     0.36600
C1078       C  0.24547017  0.85889554  0.99542516     0.36500
N1079       N  0.23515919  0.87278505  0.87427552    -0.43700
N1080       N  0.24658046  0.85706574  0.01592648    -0.43700
C1081       C  0.00048605  0.61553013  0.92976926    -0.00100
C1082       C  0.02256942  0.60000535  0.94316867    -0.12000
C1083       C  0.06177938  0.62888049  0.95528211     0.02100
C1084       C  0.07988174  0.67491856  0.95442529    -0.00200
C1085       C  0.05759873  0.69049928  0.94116787    -0.11900
C1086       C  0.01844064  0.66145539  0.92886429     0.02000
H1087       H  0.00944690  0.56486332  0.94396604     0.15000
H1088       H  0.07074977  0.72563730  0.94039288     0.15000
C1089       C  0.99693673  0.67971809  0.91605306     0.36600
C1090       C  0.08338660  0.60997205  0.96741339     0.36500
N1091       N  0.97954584  0.69408910  0.90568427    -0.43700
N1092       N  0.10071717  0.59474494  0.97701539    -0.43700
C1093       C  0.59394935  0.63385885  0.93556994    -0.00100
C1094       C  0.58017701  0.65496946  0.92011551    -0.12000
C1095       C  0.56806296  0.68376805  0.92875915     0.02100
C1096       C  0.57077629  0.69297291  0.95333616    -0.00200
C1097       C  0.58555802  0.67260290  0.96872192    -0.11900
C1098       C  0.59712680  0.64338252  0.96011591     0.02000
H1099       H  0.57681019  0.64732405  0.90128866     0.15000
H1100       H  0.58794129  0.67941772  0.98763187     0.15000
C1101       C  0.61305154  0.62437553  0.97677743     0.36600
C1102       C  0.54934939  0.70019208  0.91227167     0.36500
N1103       N  0.62591774  0.60905910  0.98998839    -0.43700
N1104       N  0.53383219  0.71279409  0.89903470    -0.43700
C1105       C  0.55556629  0.82352437  0.95047359    -0.00100
C1106       C  0.52750123  0.83812557  0.95717772    -0.12000
C1107       C  0.53191983  0.87611057  0.94736282     0.02100
C1108       C  0.56505995  0.90075574  0.93011211    -0.00200
C1109       C  0.59242476  0.88576112  0.92291324    -0.11900
C1110       C  0.58845519  0.84805433  0.93305557     0.02000
H1111       H  0.50162744  0.81974334  0.97025101     0.15000
H1112       H  0.61828951  0.90454346  0.90988837     0.15000
C1113       C  0.62054192  0.83743662  0.92615757     0.36600
C1114       C  0.50120396  0.88816345  0.95514533     0.36500
N1115       N  0.64689751  0.82980450  0.92054325    -0.43700
N1116       N  0.47665588  0.89777868  0.96148467    -0.43700
C1117       C  0.00289695  0.32738443  0.93084029    -0.00100
C1118       C  0.02759269  0.36623582  0.94430905    -0.12000
C1119       C  0.06826393  0.37824864  0.95434994     0.02100
C1120       C  0.08530488  0.35093134  0.95118226    -0.00200
C1121       C  0.06166691  0.31306051  0.93693225    -0.11900
C1122       C  0.02080130  0.30097704  0.92688480     0.02000
H1123       H  0.01504862  0.38753041  0.94712154     0.15000
H1124       H  0.07437386  0.29186499  0.93429550     0.15000
C1125       C  0.99726748  0.26013543  0.91372422     0.36600
C1126       C  0.09200302  0.41930632  0.96742887     0.36500
N1127       N  0.97858431  0.22730906  0.90322569    -0.43700
N1128       N  0.11115506  0.45208098  0.97796390    -0.43700
C1129       C  0.28324040  0.32698996  0.93507455    -0.00100
C1130       C  0.25733571  0.33480028  0.91966957    -0.12000
C1131       C  0.22665260  0.34429040  0.92852520     0.02100
C1132       C  0.22078501  0.34513674  0.95335058    -0.00200
C1133       C  0.24612536  0.33637794  0.96868680    -0.11900
C1134       C  0.27705776  0.32741210  0.95986347     0.02000
H1135       H  0.26224110  0.33511717  0.90062000     0.15000
H1136       H  0.24178395  0.33651808  0.98777103     0.15000
C1137       C  0.30094052  0.31744980  0.97671342     0.36600
C1138       C  0.20415635  0.35597890  0.91171924     0.36500
N1139       N  0.32001224  0.30938051  0.99019462    -0.43700
N1140       N  0.18654764  0.36566727  0.89813790    -0.43700
C1141       C  0.32561282  0.01611039  0.86829311    -0.00100
C1142       C  0.36131191  0.03482008  0.85230160    -0.12000
C1143       C  0.36142924  0.05734513  0.83203732     0.02100
C1144       C  0.32541883  0.06224056  0.82759142    -0.00200
C1145       C  0.28804269  0.04030980  0.84251762    -0.11900
C1146       C  0.28768704  0.01709354  0.86266953     0.02000
H1147       H  0.38989307  0.03272998  0.85597172     0.15000
H1148       H  0.25974758  0.04298232  0.83909947     0.15000
C1149       C  0.24910047  0.99714660  0.87785175     0.36600
C1150       C  0.39900167  0.07486270  0.81619827     0.36500
N1151       N  0.21780386  0.98118548  0.88974821    -0.43700
N1152       N  0.42915723  0.08863027  0.80356168    -0.43700
C1153       C  0.32842784  0.22028399  0.83071081    -0.00100
C1154       C  0.29530532  0.20038975  0.84827801    -0.12000
C1155       C  0.29780046  0.22332100  0.86910713     0.02100
C1156       C  0.33388908  0.26707349  0.87251077    -0.00200
C1157       C  0.36563435  0.28762126  0.85446530    -0.11900
C1158       C  0.36307484  0.26491764  0.83367249     0.02000
H1159       H  0.26858369  0.16616226  0.84629415     0.15000
H1160       H  0.39297753  0.32150713  0.85678259     0.15000
C1161       C  0.39645678  0.28837941  0.81561851     0.36600
C1162       C  0.26467021  0.20017036  0.88732501     0.36500
N1163       N  0.42315376  0.30710132  0.80111234    -0.43700
N1164       N  0.23801950  0.18122333  0.90183017    -0.43700
C1165       C  0.61866607  0.01050801  0.86493761    -0.00100
C1166       C  0.64702098  0.99787694  0.85596609    -0.12000
C1167       C  0.67196095  0.01709428  0.83521055     0.02100
C1168       C  0.66931101  0.05034927  0.82326221    -0.00200
C1169       C  0.63732027  0.05915111  0.83088016    -0.11900
C1170       C  0.61208786  0.03961226  0.85131653     0.02000
H1171       H  0.65114613  0.97421691  0.86567716     0.15000
H1172       H  0.63293253  0.08281967  0.82136489     0.15000
C1173       C  0.57976658  0.05031383  0.85773920     0.36600
C1174       C  0.70018631  0.00232306  0.82698803     0.36500
N1175       N  0.55388347  0.05891507  0.86283191    -0.43700
N1176       N  0.72244198  0.99006930  0.82035300    -0.43700
C1177       C  0.83034209  0.20271682  0.83268384    -0.00100
C1178       C  0.87661820  0.22386885  0.83393159    -0.12000
C1179       C  0.89998370  0.24804264  0.85426273     0.02100
C1180       C  0.87668915  0.25067956  0.87393134    -0.00200
C1181       C  0.83023668  0.22759513  0.87286927    -0.11900
C1182       C  0.80715595  0.20402045  0.85263629     0.02000
H1183       H  0.89463862  0.22269938  0.81871965     0.15000
H1184       H  0.81155397  0.22811848  0.88794147     0.15000
C1185       C  0.75938364  0.18030795  0.85315813     0.36600
C1186       C  0.94770433  0.27145870  0.85390771     0.36500
N1187       N  0.72113134  0.16124948  0.85376736    -0.43700
N1188       N  0.98597249  0.29037296  0.85370318    -0.43700
C1189       C  0.69332302  0.59000116  0.82848222    -0.00100
C1190       C  0.65064258  0.55233510  0.83199697    -0.12000
C1191       C  0.62682729  0.54662479  0.85286460     0.02100
C1192       C  0.64499286  0.57975533  0.87045234    -0.00200
C1193       C  0.68624734  0.61857096  0.86641444    -0.11900
C1194       C  0.71096588  0.62355986  0.84596174     0.02000
H1195       H  0.63642357  0.52623447  0.81879921     0.15000
H1196       H  0.70058564  0.64381745  0.88007702     0.15000
C1197       C  0.75580727  0.66125628  0.84475644     0.36600
C1198       C  0.58419913  0.50615319  0.85590497     0.36500
N1199       N  0.79191111  0.69129058  0.84415942    -0.43700
N1200       N  0.55019624  0.47356467  0.85828017    -0.43700
C1201       C  0.83866770  0.58250072  0.83066216    -0.00100
C1202       C  0.88494477  0.60345254  0.83076075    -0.12000
C1203       C  0.90664927  0.59785745  0.84999291     0.02100
C1204       C  0.88176246  0.57148331  0.86969066    -0.00200
C1205       C  0.83579898  0.55269893  0.86989649    -0.11900
C1206       C  0.81429666  0.55796680  0.85075403     0.02000
H1207       H  0.90388208  0.62252165  0.81538896     0.15000
H1208       H  0.81632528  0.53339976  0.88509110     0.15000
C1209       C  0.76700470  0.53832968  0.85228656     0.36600
C1210       C  0.95375404  0.61683846  0.84820287     0.36500
N1211       N  0.72915136  0.52276315  0.85333722    -0.43700
N1212       N  0.99145845  0.63186175  0.84653659    -0.43700
C1213       C  0.64281111  0.57727310  0.68203084    -0.00100
C1214       C  0.68497562  0.61541516  0.68504760    -0.12000
C1215       C  0.71062960  0.62050751  0.70510300     0.02100
C1216       C  0.69357402  0.58714786  0.72279042    -0.00200
C1217       C  0.65037188  0.55015113  0.72015580    -0.11900
C1218       C  0.62515581  0.54489668  0.70004913     0.02000
H1219       H  0.69873180  0.64027069  0.67115850     0.15000
H1220       H  0.63641648  0.52459731  0.73367264     0.15000
C1221       C  0.58109429  0.50591229  0.69838373     0.36600
C1222       C  0.75518708  0.65877811  0.70611484     0.36500
N1223       N  0.54580543  0.47466275  0.69713576    -0.43700
N1224       N  0.79092025  0.68946478  0.70674177    -0.43700
C1225       C  0.57225856  0.62149107  0.62243943    -0.00100
C1226       C  0.60377543  0.66710113  0.62208632    -0.12000
C1227       C  0.59363468  0.69666600  0.61230351     0.02100
C1228       C  0.55135816  0.68055208  0.60238759    -0.00200
C1229       C  0.51953317  0.63509321  0.60342584    -0.11900
C1230       C  0.52932140  0.60572613  0.61362052     0.02000
H1231       H  0.63675741  0.67956641  0.62890060     0.15000
H1232       H  0.48658527  0.62247741  0.59649859     0.15000
C1233       C  0.49403403  0.55987242  0.61575340     0.36600
C1234       C  0.62775027  0.74306566  0.61181719     0.36500
N1235       N  0.46554300  0.52327803  0.61764795    -0.43700
N1236       N  0.65498320  0.78030842  0.61149940    -0.43700
C1237       C  0.63920995  0.02224728  0.67612889    -0.00100
C1238       C  0.62436063  0.04374439  0.69055501    -0.12000
C1239       C  0.64521137  0.06351007  0.71207219     0.02100
C1240       C  0.68329522  0.06378492  0.71923177    -0.00200
C1241       C  0.69700199  0.04060968  0.70525156    -0.11900
C1242       C  0.67507638  0.01947978  0.68409705     0.02000
H1243       H  0.59579646  0.04467062  0.68511654     0.15000
H1244       H  0.72561937  0.03970651  0.71055108     0.15000
C1245       C  0.69115998  0.99656754  0.67062686     0.36600
C1246       C  0.62538263  0.08153187  0.72670172     0.36500
N1247       N  0.70391386  0.97791355  0.65998266    -0.43700
N1248       N  0.60877205  0.09529502  0.73836995    -0.43700
C1249       C  0.57925228  0.90610091  0.61393000    -0.00100
C1250       C  0.57543114  0.87441673  0.63018106    -0.12000
C1251       C  0.56294258  0.83189469  0.62271739     0.02100
C1252       C  0.55451631  0.82046232  0.59839569    -0.00200
C1253       C  0.55910274  0.85240322  0.58216768    -0.11900
C1254       C  0.57135528  0.89466260  0.58955352     0.02000
H1255       H  0.58082466  0.88234396  0.64895851     0.15000
H1256       H  0.55338156  0.84450604  0.56338796     0.15000
C1257       C  0.57635908  0.92550093  0.57139018     0.36600
C1258       C  0.55687592  0.80026718  0.64060891     0.36500
N1259       N  0.58017074  0.94978200  0.55663599    -0.43700
N1260       N  0.55188880  0.77495409  0.65500790    -0.43700
C1261       C  0.33480796  0.07154862  0.72410514    -0.00100
C1262       C  0.29733987  0.04676338  0.70954150    -0.12000
C1263       C  0.29869064  0.02480228  0.68912227     0.02100
C1264       C  0.33795167  0.02653565  0.68305073    -0.00200
C1265       C  0.37498689  0.05033682  0.69785039    -0.11900
C1266       C  0.37387323  0.07251987  0.71810837     0.02000
H1267       H  0.26722319  0.04589382  0.71354247     0.15000
H1268       H  0.40529488  0.05176278  0.69351132     0.15000
C1269       C  0.41356507  0.09563434  0.73231067     0.36600
C1270       C  0.26049525  0.00398248  0.67377258     0.36500
N1271       N  0.44554164  0.11407851  0.74356171    -0.43700
N1272       N  0.22987529  0.98793022  0.66145863    -0.43700
C1273       C  0.28056465  0.90323942  0.62432809    -0.00100
C1274       C  0.27683997  0.89659278  0.59958386    -0.12000
C1275       C  0.24835650  0.85474339  0.58977336     0.02100
C1276       C  0.22284944  0.81800773  0.60480285    -0.00200
C1277       C  0.22519993  0.82480626  0.62954880    -0.11900
C1278       C  0.25374697  0.86688719  0.63938356     0.02000
H1279       H  0.29660099  0.92432511  0.58776078     0.15000
H1280       H  0.20558104  0.79693504  0.64130305     0.15000
C1281       C  0.25650922  0.87131999  0.66492573     0.36600
C1282       C  0.24513310  0.85070791  0.56418887     0.36500
N1283       N  0.25882175  0.87504279  0.68539522    -0.43700
N1284       N  0.24222015  0.84704583  0.54372277    -0.43700
C1285       C  0.87826808  0.56225557  0.68387733    -0.00100
C1286       C  0.85582393  0.52836664  0.70055293    -0.12000
C1287       C  0.83733773  0.53422166  0.72095464     0.02100
C1288       C  0.84025686  0.57477401  0.72488722    -0.00200
C1289       C  0.86393051  0.60930856  0.70848674    -0.11900
C1290       C  0.88298663  0.60346033  0.68811691     0.02000
H1291       H  0.85302848  0.49702764  0.69773208     0.15000
H1292       H  0.86624703  0.64044975  0.71109875     0.15000
C1293       C  0.90502894  0.63949549  0.67137922     0.36600
C1294       C  0.81590203  0.49773054  0.73747254     0.36500
N1295       N  0.92252086  0.66865430  0.65812025    -0.43700
N1296       N  0.79868962  0.46829892  0.75057270    -0.43700
C1297       C  0.00100485  0.60702647  0.62768218    -0.00100
C1298       C  0.01680035  0.65217073  0.62981421    -0.12000
C1299       C  0.05776866  0.68438906  0.62014773     0.02100
C1300       C  0.08400225  0.67146394  0.60834446    -0.00200
C1301       C  0.06868455  0.62642780  0.60686473    -0.11900
C1302       C  0.02784980  0.59432880  0.61639002     0.02000
H1303       H  0.99641498  0.66233475  0.63830728     0.15000
H1304       H  0.08882418  0.61610114  0.59821324     0.15000
C1305       C  0.01498586  0.54873750  0.61459524     0.36600
C1306       C  0.07052172  0.72996607  0.62142059     0.36500
N1307       N  0.00456274  0.51220197  0.61309597    -0.43700
N1308       N  0.08036355  0.76637478  0.62243895    -0.43700
C1309       C  0.84383469  0.21793055  0.72548863    -0.00100
C1310       C  0.86603101  0.20279399  0.71176926    -0.12000
C1311       C  0.88459851  0.22160769  0.68964691     0.02100
C1312       C  0.88243596  0.25744682  0.68108119    -0.00200
C1313       C  0.86386821  0.27514197  0.69572826    -0.11900
C1314       C  0.84447422  0.25580981  0.71761428     0.02000
H1315       H  0.86607635  0.17392260  0.71742825     0.15000
H1316       H  0.86299654  0.30335923  0.68963476     0.15000
C1317       C  0.82379996  0.27460918  0.73085656     0.36600
C1318       C  0.90128513  0.20024928  0.67526755     0.36500
N1319       N  0.80690189  0.28953006  0.74127485    -0.43700
N1320       N  0.91402916  0.18239224  0.66387923    -0.43700
C1321       C  0.98645409  0.30290534  0.61359955    -0.00100
C1322       C  0.02119831  0.31375332  0.62936381    -0.12000
C1323       C  0.06353490  0.32744311  0.62106763     0.02100
C1324       C  0.07196362  0.33041141  0.59633391    -0.00200
C1325       C  0.03683082  0.31795607  0.58052707    -0.11900
C1326       C  0.99427734  0.30384362  0.58888624     0.02000
H1327       H  0.01584283  0.31335691  0.64837147     0.15000
H1328       H  0.04254609  0.31894085  0.56152936     0.15000
C1329       C  0.95918481  0.28914311  0.57169935     0.36600
C1330       C  0.09795354  0.34057056  0.63851914     0.36500
N1331       N  0.93130234  0.27706058  0.55774755    -0.43700
N1332       N  0.12526567  0.35097760  0.65265231    -0.43700
C1333       C  0.33544786  0.26986380  0.68382356    -0.00100
C1334       C  0.37525633  0.28107613  0.69498512    -0.12000
C1335       C  0.37569837  0.26034603  0.71591310     0.02100
C1336       C  0.33536012  0.22619675  0.72599497    -0.00200
C1337       C  0.29541609  0.21669139  0.71554267    -0.11900
C1338       C  0.29508388  0.23839303  0.69486819     0.02000
H1339       H  0.40659461  0.30635134  0.68725298     0.15000
H1340       H  0.26404667  0.19135502  0.72318334     0.15000
C1341       C  0.25276487  0.22631523  0.68512808     0.36600
C1342       C  0.41834269  0.27528198  0.72634102     0.36500
N1343       N  0.21852463  0.21645634  0.67769709    -0.43700
N1344       N  0.45268190  0.28778619  0.73461468    -0.43700
C1345       C  0.21787619  0.34721732  0.60324104    -0.00100
C1346       C  0.26321311  0.37625819  0.59878880    -0.12000
C1347       C  0.29479513  0.36990503  0.60906273     0.02100
C1348       C  0.28145821  0.33344420  0.62433442    -0.00200
C1349       C  0.23640369  0.30606887  0.63021560    -0.11900
C1350       C  0.20456587  0.31237524  0.61974748     0.02000
H1351       H  0.27431696  0.40408035  0.58689166     0.15000
H1352       H  0.22569272  0.27825216  0.64203921     0.15000
C1353       C  0.15855442  0.28085774  0.62519007     0.36600
C1354       C  0.34068282  0.40163884  0.60335005     0.36500
N1355       N  0.12164598  0.25552757  0.62944712    -0.43700
N1356       N  0.37732949  0.42695527  0.59855506    -0.43700
loop_ 
_geom_bond_atom_site_label_1 
_geom_bond_atom_site_label_2 
_geom_bond_distance 
_geom_bond_site_symmetry_2 
_ccdc_geom_bond_type 
C1            N2   1.365       .  A
C1            N6   1.360       .  A
C1         C1333   1.489       .  S
N2            C3   1.365       .  A
C3            N4   1.357       .  A
C3         C1348   1.487       .  S
N4            C5   1.349       .  A
C5            N6   1.352       .  A
C5           C97   1.475       .  S
C7            N8   1.359       .  A
C7           N12   1.358       .  A
C7         C1312   1.486       .  S
N8            C9   1.357       .  A
C9           N10   1.357       .  A
C9          C143   1.481       .  S
N10          C11   1.359       .  A
C11          N12   1.361       .  A
C11        C1321   1.485       .  S
C13          N14   1.358       .  A
C13          N18   1.361       .  A
C13        C1324   1.484       .  S
N14          C15   1.356       .  A
C15          N16   1.360       .  A
C15        C1345   1.489       .  S
N16          C17   1.356       .  A
C17          N18   1.359       .  A
C17         C543   1.472       .  S
C19          N20   1.363       .  A
C19          N24   1.358       .  A
C19        C1285   1.478       .  S
N20          C21   1.358       .  A
C21          N22   1.351       .  A
C21         C144   1.479       .  S
N22          C23   1.356       .  A
C23          N24   1.358       .  A
C23        C1297   1.479   1_655  S
C25          N26   1.366   1_545  A
C25          N30   1.362       .  A
C25        C1264   1.492       .  S
N26          C27   1.366       .  A
C27          N28   1.356       .  A
C27        C1273   1.488       .  S
N28          C29   1.352   1_565  A
C29          N30   1.356       .  A
C29          C58   1.475       .  S
C31          N32   1.358       .  A
C31          N36   1.358       .  A
C31        C1300   1.478       .  S
N32          C33   1.353       .  A
C33          N34   1.359       .  A
C33         C501   1.472       .  S
N34          C35   1.363       .  A
C35          N36   1.359       .  A
C35        C1276   1.487       .  S
N37          C42   1.354       .  A
N37          C41   1.354       .  A
N37          H69   1.034       .  S
N38          C45   1.351       .  A
N38          C46   1.351       .  A
N39          C44   1.355       .  A
N39          C43   1.354       .  A
N39          H70   1.033       .  S
N40          C47   1.350       .  A
N40          C48   1.350       .  A
C41          C49   1.389       .  A
C41          C57   1.418       .  A
C42          C58   1.414       .  A
C42          C50   1.385       .  A
C43          C51   1.388       .  A
C43          C60   1.421       .  A
C44          C59   1.417       .  A
C44          C52   1.386       .  A
C45          C57   1.415       .  A
C45          C53   1.387       .  A
C46          C60   1.416       .  A
C46          C54   1.388       .  A
C47          C55   1.387       .  A
C47          C58   1.411       .  A
C48          C56   1.387       .  A
C48          C59   1.412       .  A
C49          C50   1.375       .  A
C49          H61   1.082   1_545  S
C50          H62   1.082   1_545  S
C51          C52   1.373       .  A
C51          H63   1.080       .  S
C52          H64   1.082       .  S
C53          C54   1.374       .  A
C53          H65   1.082       .  S
C54          H66   1.082       .  S
C55          C56   1.371       .  A
C55          H67   1.083       .  S
C56          H68   1.082       .  S
C57         C159   1.478       .  S
C59          C71   1.477       .  S
C60         C119   1.477       .  S
C71          N72   1.356       .  A
C71          N76   1.355       .  A
N72          C73   1.358       .  A
C73          N74   1.362       .  A
C73         C100   1.483       .  S
N74          C75   1.363       .  A
C75          N76   1.358       .  A
C75         C425   1.472       .  S
N77          C82   1.354       .  A
N77          C81   1.353       .  A
N77         H109   1.030       .  S
N78          C85   1.351       .  A
N78          C86   1.351       .  A
N79          C84   1.354       .  A
N79          C83   1.355       .  A
N79         H110   1.031       .  S
N80          C87   1.351       .  A
N80          C88   1.350       .  A
C81          C89   1.389       .  A
C81          C97   1.420       .  A
C82          C98   1.419       .  A
C82          C90   1.388       .  A
C83          C91   1.387       .  A
C83         C100   1.421       .  A
C84          C99   1.420       .  A
C84          C92   1.388       .  A
C85          C97   1.416       .  A
C85          C93   1.386       .  A
C86         C100   1.418       .  A
C86          C94   1.387       .  A
C87          C95   1.387       .  A
C87          C98   1.416       .  A
C88          C96   1.387       .  A
C88          C99   1.415       .  A
C89          C90   1.372       .  A
C89         H101   1.082       .  S
C90         H102   1.083       .  S
C91          C92   1.374       .  A
C91         H103   1.082       .  S
C92         H104   1.082       .  S
C93          C94   1.374       .  A
C93         H105   1.082       .  S
C94         H106   1.082       .  S
C95          C96   1.373       .  A
C95         H107   1.082       .  S
C96         H108   1.083       .  S
C98         C167   1.477       .  S
C99         C111   1.476       .  S
C111        N112   1.360       .  A
C111        N116   1.355       .  A
N112        C113   1.360       .  A
C113        N114   1.358       .  A
C113        C561   1.468       .  S
N114        C115   1.354       .  A
C115        N116   1.355       .  A
C115        C145   1.473       .  S
C117        N118   1.361       .  A
C117        N122   1.364       .  A
C117        C407   1.473       .  S
N118        C119   1.358       .  A
C119        N120   1.355       .  A
N120        C121   1.354       .  A
C121        N122   1.360       .  A
C121        C146   1.484       .  S
N123        C128   1.356       .  A
N123        C127   1.353       .  A
N123        H155   1.037       .  S
N124        C131   1.352       .  A
N124        C132   1.353       .  A
N125        C130   1.354       .  A
N125        C129   1.355       .  A
N125        H156   1.038       .  S
N126        C133   1.350       .  A
N126        C134   1.349       .  A
C127        C135   1.390       .  A
C127        C143   1.424       .  A
C128        C144   1.422       .  A
C128        C136   1.387       .  A
C129        C137   1.388       .  A
C129        C146   1.423       .  A
C130        C145   1.420       .  A
C130        C138   1.387       .  A
C131        C143   1.420       .  A
C131        C139   1.387       .  A
C132        C146   1.419       .  A
C132        C140   1.387       .  A
C133        C141   1.387       .  A
C133        C144   1.414       .  A
C134        C142   1.388       .  A
C134        C145   1.413       .  A
C135        C136   1.375       .  A
C135        H147   1.082       .  S
C136        H148   1.082       .  S
C137        C138   1.373       .  A
C137        H149   1.080       .  S
C138        H150   1.082       .  S
C139        C140   1.374       .  A
C139        H151   1.082       .  S
C140        H152   1.082       .  S
C141        C142   1.368       .  A
C141        H153   1.082       .  S
C142        H154   1.082       .  S
C157        N158   1.360       .  A
C157        N162   1.362   1_545  A
C157       C1237   1.488       .  S
N158        C159   1.356       .  A
C159        N160   1.353   1_545  A
N160        C161   1.358       .  A
C161        N162   1.363       .  A
C161       C1249   1.489       .  S
C163        N164   1.362       .  A
C163        N168   1.358       .  A
C163       C1213   1.477       .  S
N164        C165   1.363       .  A
C165        N166   1.358       .  A
C165       C1225   1.483       .  S
N166        C167   1.354       .  A
C167        N168   1.354       .  A
C169        N170   1.357       .  A
C169        N174   1.361       .  A
C169       C1252   1.487       .  S
N170        C171   1.353       .  A
C171        N172   1.358       .  A
C171        C463   1.469       .  S
N172        C173   1.361       .  A
C173        N174   1.361       .  A
C173       C1228   1.485       .  S
O175       Ni183   1.894       .  S
O175        C185   1.276       .  A
O176       Ni183   1.895       .  S
O176        C186   1.277       .  A
O177       Ni183   1.911       .  S
O177        C187   1.281       .  A
O178       Ni183   1.912       .  S
O178        C188   1.281       .  A
O179       Ni184   1.927       .  S
O179        C188   1.281       .  A
O180       Ni184   1.925       .  S
O180        C187   1.282       .  A
O181       Ni184   1.933       .  S
O181        C186   1.285       .  A
O182       Ni184   1.931       .  S
O182        C185   1.285       .  A
Ni183      Ni184   2.385       .  S
C185       C1288   1.485       .  S
C186       C1189   1.486       .  S
C187       C1216   1.488       .  S
C188       C1201   1.480       .  S
O189       Ni197   1.917       .  S
O189        C199   1.281       .  A
O190       Ni197   1.919       .  S
O190        C200   1.282       .  A
O191       Ni197   1.909       .  S
O191        C201   1.279       .  A
O192       Ni197   1.904       .  S
O192        C202   1.280       .  A
O193       Ni198   1.924       .  S
O193        C202   1.282       .  A
O194       Ni198   1.921       .  S
O194        C201   1.283       .  A
O195       Ni198   1.927       .  S
O195        C200   1.281       .  A
O196       Ni198   1.926       .  S
O196        C199   1.283       .  A
Ni197      Ni198   2.382       .  S
C199       C1240   1.494       .  S
C200       C1177   1.482       .  S
C201       C1309   1.491       .  S
C202       C1168   1.490       .  S
O203       Ni211   1.933       .  S
O203        C213   1.285       .  A
O204       Ni211   1.932       .  S
O204        C214   1.284       .  A
O205       Ni211   1.919       .  S
O205        C215   1.282       .  A
O206       Ni211   1.918       .  S
O206        C216   1.281       .  A
O207       Ni212   1.914       .  S
O207        C216   1.281       .  A
O208       Ni212   1.913       .  S
O208        C215   1.280       .  A
O209       Ni212   1.914       .  S
O209        C214   1.281       .  A
O210       Ni212   1.916       .  S
O210        C213   1.281       .  A
Ni211      Ni212   2.382       .  S
C213       C1261   1.500       .  S
C214       C1153   1.489       .  S
C215       C1336   1.493       .  S
C216       C1144   1.485       .  S
C217        N218   1.359       .  A
C217        N222   1.360       .  A
C217       C1156   1.479       .  S
N218        C219   1.357       .  A
C219        N220   1.354       .  A
C219        C354   1.478       .  S
N220        C221   1.358       .  A
C221        N222   1.362       .  A
C221       C1129   1.481       .  S
C223        N224   1.363       .  A
C223        N228   1.357       .  A
C223       C1180   1.491       .  S
N224        C225   1.364       .  A
C225        N226   1.361       .  A
C225       C1117   1.491   1_655  S
N226        C227   1.354       .  A
C227        N228   1.351       .  A
C227        C313   1.473       .  S
C229        N230   1.362       .  A
C229        N234   1.358       .  A
C229       C1120   1.486       .  S
N230        C231   1.362       .  A
C231        N232   1.357       .  A
C231       C1132   1.484       .  S
N232        C233   1.354       .  A
C233        N234   1.353       .  A
C233        C747   1.464   1_556  S
N235        C240   1.351       .  A
N235        C239   1.354       .  A
N235        H267   1.037       .  S
N236        C243   1.350       .  A
N236        C244   1.349       .  A
N237        C242   1.354   1_556  A
N237        C241   1.352   1_556  A
N237        H268   1.032       .  S
N238        C245   1.351       .  A
N238        C246   1.353       .  A
C239        C247   1.387   1_545  A
C239        C255   1.413       .  A
C240        C256   1.413       .  A
C240        C248   1.388   1_545  A
C241        C249   1.388       .  A
C241        C258   1.417   1_554  A
C242        C257   1.418       .  A
C242        C250   1.387       .  A
C243        C255   1.408       .  A
C243        C251   1.386       .  A
C244        C258   1.413       .  A
C244        C252   1.389       .  A
C245        C253   1.386       .  A
C245        C256   1.412       .  A
C246        C254   1.387       .  A
C246        C257   1.416   1_556  A
C247        C248   1.373       .  A
C247        H259   1.082       .  S
C248        H260   1.082       .  S
C249        C250   1.379       .  A
C249        H261   1.083       .  S
C250        H262   1.082       .  S
C251        C252   1.371       .  A
C251        H263   1.082       .  S
C252        H264   1.083       .  S
C253        C254   1.374       .  A
C253        H265   1.082       .  S
C254        H266   1.082       .  S
C255        C383   1.473       .  S
C256        C279   1.472       .  S
C257        C273   1.481       .  S
C258        C367   1.470   1_556  S
C269        N270   1.361       .  A
C269        N274   1.364       .  A
C269        C607   1.475       .  S
N270        C271   1.358       .  A
C271        N272   1.356       .  A
C271        C316   1.480       .  S
N272        C273   1.355       .  A
C273        N274   1.361       .  A
C275        N276   1.361       .  A
C275        N280   1.359   1_565  A
C275       C1165   1.487   1_565  S
N276        C277   1.362       .  A
C277        N278   1.357       .  A
C277       C1108   1.487       .  S
N278        C279   1.353   1_565  A
C279        N280   1.353       .  A
C281        N282   1.358       .  A
C281        N286   1.359       .  A
C281       C1192   1.476       .  S
N282        C283   1.356       .  A
C283        N284   1.358       .  A
C283        C353   1.478       .  S
N284        C285   1.360       .  A
C285        N286   1.360       .  A
C285       C1093   1.486       .  S
C287        N288   1.365       .  A
C287        N292   1.359       .  A
C287       C1105   1.496       .  S
N288        C289   1.366       .  A
C289        N290   1.359       .  A
C289       C1096   1.488       .  S
N290        C291   1.355       .  A
C291        N292   1.354       .  A
C291        C673   1.467   1_556  S
N293        C298   1.352       .  A
N293        C297   1.351       .  A
N293        H325   1.034       .  S
N294        C301   1.351       .  A
N294        C302   1.352       .  A
N295        C300   1.353   1_556  A
N295        C299   1.354   1_556  A
N295        H326   1.033       .  S
N296        C303   1.352       .  A
N296        C304   1.352       .  A
C297        C305   1.389       .  A
C297        C313   1.416       .  A
C298        C314   1.412       .  A
C298        C306   1.386       .  A
C299        C307   1.389       .  A
C299        C316   1.420       .  A
C300        C315   1.416   1_554  A
C300        C308   1.387       .  A
C301        C313   1.416       .  A
C301        C309   1.387       .  A
C302        C316   1.417   1_556  A
C302        C310   1.387       .  A
C303        C311   1.387       .  A
C303        C314   1.413       .  A
C304        C312   1.386       .  A
C304        C315   1.413       .  A
C305        C306   1.376       .  A
C305        H317   1.082       .  S
C306        H318   1.083       .  S
C307        C308   1.374       .  A
C307        H319   1.082       .  S
C308        H320   1.082       .  S
C309        C310   1.374       .  A
C309        H321   1.082       .  S
C310        H322   1.082       .  S
C311        C312   1.371       .  A
C311        H323   1.082       .  S
C312        H324   1.082       .  S
C314        C375   1.474       .  S
C315        C331   1.475   1_556  S
C327        N328   1.357       .  A
C327        N332   1.361       .  A
C327        C763   1.466       .  S
N328        C329   1.354       .  A
C329        N330   1.354   1_554  A
C329        C356   1.470   1_554  S
N330        C331   1.355   1_556  A
C331        N332   1.359       .  A
N333        C338   1.353       .  A
N333        C337   1.354       .  A
N333        H365   1.033       .  S
N334        C341   1.352       .  A
N334        C342   1.350       .  A
N335        C340   1.353   1_556  A
N335        C339   1.351   1_556  A
N335        H366   1.034       .  S
N336        C343   1.352       .  A
N336        C344   1.353       .  A
C337        C345   1.388       .  A
C337        C353   1.418       .  A
C338        C354   1.417       .  A
C338        C346   1.387       .  A
C339        C347   1.388       .  A
C339        C356   1.415   1_554  A
C340        C355   1.414   1_554  A
C340        C348   1.386       .  A
C341        C353   1.415       .  A
C341        C349   1.387       .  A
C342        C356   1.414       .  A
C342        C350   1.388       .  A
C343        C351   1.388       .  A
C343        C354   1.416       .  A
C344        C352   1.385       .  A
C344        C355   1.415       .  A
C345        C346   1.375       .  A
C345        H357   1.082       .  S
C346        H358   1.082       .  S
C347        C348   1.376       .  A
C347        H359   1.083       .  S
C348        H360   1.083       .  S
C349        C350   1.375       .  A
C349        H361   1.083       .  S
C350        H362   1.083       .  S
C351        C352   1.373       .  A
C351        H363   1.082       .  S
C352        H364   1.082       .  S
C355        C371   1.482   1_556  S
C367        N368   1.354       .  A
C367        N372   1.357   1_554  A
N368        C369   1.356       .  A
C369        N370   1.363       .  A
C369        C625   1.469       .  S
N370        C371   1.361       .  A
C371        N372   1.357   1_554  A
C373        N374   1.363       .  A
C373        N378   1.363       .  A
C373       C1204   1.489       .  S
N374        C375   1.356       .  A
C375        N376   1.350       .  A
N376        C377   1.355       .  A
C377        N378   1.364       .  A
C377       C1081   1.487   1_655  S
C379        N380   1.361   1_545  A
C379        N384   1.359       .  A
C379       C1141   1.481       .  S
N380        C381   1.363       .  A
C381        N382   1.357       .  A
C381       C1069   1.483       .  S
N382        C383   1.352   1_565  A
C383        N384   1.354       .  A
C385        N386   1.359       .  A
C385        N390   1.357       .  A
C385       C1084   1.489       .  S
N386        C387   1.357       .  A
C387        N388   1.358       .  A
C387        C629   1.472   1_556  S
N388        C389   1.360       .  A
C389        N390   1.357       .  A
C389       C1072   1.480       .  S
C391        N392   1.359       .  A
C391        N396   1.359   1_455  A
C391       C1048   1.479       .  S
N392        C393   1.355       .  A
C393        N394   1.352   1_455  A
C393        C488   1.468       .  S
N394        C395   1.354       .  A
C395        N396   1.360       .  A
C395       C1060   1.477       .  S
C397        N398   1.366       .  A
C397        N402   1.358       .  A
C397       C1021   1.496       .  S
N398        C399   1.363       .  A
C399        N400   1.354       .  A
C399       C1033   1.481       .  S
N400        C401   1.350       .  A
C401        N402   1.354       .  A
C401        C447   1.469       .  S
C403        N404   1.355       .  A
C403        N408   1.358       .  A
C403       C1057   1.477       .  S
N404        C405   1.355       .  A
C405        N406   1.362       .  A
C405       C1036   1.483       .  S
N406        C407   1.361       .  A
C407        N408   1.357       .  A
C409        N410   1.365       .  A
C409        N414   1.360       .  A
C409        C997   1.483       .  S
N410        C411   1.363       .  A
C411        N412   1.353       .  A
C411       C1009   1.481       .  S
N412        C413   1.347       .  A
C413        N414   1.354       .  A
C413        C528   1.470       .  S
C415        N416   1.358       .  A
C415        N420   1.362       .  A
C415        C976   1.484       .  S
N416        C417   1.354       .  A
C417        N418   1.355       .  A
C417        C448   1.480       .  S
N418        C419   1.360       .  A
C419        N420   1.363       .  A
C419        C985   1.494       .  S
C421        N422   1.359       .  A
C421        N426   1.360       .  A
C421        C988   1.491       .  S
N422        C423   1.359       .  A
C423        N424   1.362       .  A
C423       C1012   1.486       .  S
N424        C425   1.356       .  A
C425        N426   1.357       .  A
N427        C432   1.355       .  A
N427        C431   1.352       .  A
N427        H459   1.033       .  S
N428        C435   1.349       .  A
N428        C436   1.350       .  A
N429        C434   1.354       .  A
N429        C433   1.357       .  A
N429        H460   1.036       .  S
N430        C437   1.352       .  A
N430        C438   1.350       .  A
C431        C439   1.387       .  A
C431        C447   1.415       .  A
C432        C448   1.417       .  A
C432        C440   1.388       .  A
C433        C441   1.384       .  A
C433        C450   1.416       .  A
C434        C449   1.422       .  A
C434        C442   1.388       .  A
C435        C447   1.411       .  A
C435        C443   1.388       .  A
C436        C450   1.408       .  A
C436        C444   1.386       .  A
C437        C445   1.386       .  A
C437        C448   1.415       .  A
C438        C446   1.388       .  A
C438        C449   1.415       .  A
C439        C440   1.373       .  A
C439        H451   1.082       .  S
C440        H452   1.082       .  S
C441        C442   1.373       .  A
C441        H453   1.082       .  S
C442        H454   1.076       .  S
C443        C444   1.370       .  A
C443        H455   1.082       .  S
C444        H456   1.083       .  S
C445        C446   1.374       .  A
C445        H457   1.082       .  S
C446        H458   1.082       .  S
C449        C503   1.478       .  S
C450        C461   1.479       .  S
C461        N462   1.358       .  A
C461        N466   1.355       .  A
N462        C463   1.361       .  A
C463        N464   1.357       .  A
N464        C465   1.357       .  A
C465        N466   1.357       .  A
C465        C530   1.470       .  S
N467        C472   1.352       .  A
N467        C471   1.354       .  A
N467        H499   1.027       .  S
N468        C475   1.352       .  A
N468        C476   1.351       .  A
N469        C474   1.357       .  A
N469        C473   1.354       .  A
N469        H500   1.029       .  S
N470        C477   1.349       .  A
N470        C478   1.350       .  A
C471        C479   1.388       .  A
C471        C487   1.420       .  A
C472        C488   1.419       .  A
C472        C480   1.388       .  A
C473        C481   1.388       .  A
C473        C490   1.424       .  A
C474        C489   1.421       .  A
C474        C482   1.386       .  A
C475        C487   1.419       .  A
C475        C483   1.387       .  A
C476        C490   1.418       .  A
C476        C484   1.387       .  A
C477        C485   1.388       .  A
C477        C488   1.415       .  A
C478        C486   1.387       .  A
C478        C489   1.414       .  A
C479        C480   1.375       .  A
C479        H491   1.082   1_455  S
C480        H492   1.083   1_455  S
C481        C482   1.375       .  A
C481        H493   1.080       .  S
C482        H494   1.083       .  S
C483        C484   1.373       .  A
C483        H495   1.082       .  S
C484        H496   1.082       .  S
C485        C486   1.371       .  A
C485        H497   1.083       .  S
C486        H498   1.083       .  S
C487        C555   1.480       .  S
C489        C541   1.479       .  S
C490        C505   1.480       .  S
C501        N502   1.360       .  A
C501        N506   1.364       .  A
N502        C503   1.358       .  A
C503        N504   1.355       .  A
N504        C505   1.354       .  A
C505        N506   1.359       .  A
N507        C512   1.352       .  A
N507        C511   1.354       .  A
N507        H539   1.029       .  S
N508        C515   1.350       .  A
N508        C516   1.350       .  A
N509        C514   1.355       .  A
N509        C513   1.351       .  A
N509        H540   1.031       .  S
N510        C517   1.349       .  A
N510        C518   1.351       .  A
C511        C519   1.388       .  A
C511        C527   1.419       .  A
C512        C528   1.420       .  A
C512        C520   1.389       .  A
C513        C521   1.389       .  A
C513        C530   1.416       .  A
C514        C529   1.417       .  A
C514        C522   1.387       .  A
C515        C527   1.416       .  A
C515        C523   1.388       .  A
C516        C530   1.415       .  A
C516        C524   1.387       .  A
C517        C525   1.388       .  A
C517        C528   1.416       .  A
C518        C526   1.386       .  A
C518        C529   1.415       .  A
C519        C520   1.374       .  A
C519        H531   1.082       .  S
C520        H532   1.083       .  S
C521        C522   1.372       .  A
C521        H533   1.082       .  S
C522        H534   1.082       .  S
C523        C524   1.374       .  A
C523        H535   1.083       .  S
C524        H536   1.082       .  S
C525        C526   1.373       .  A
C525        H537   1.082       .  S
C526        H538   1.082       .  S
C527        C549   1.476       .  S
C529        C545   1.481       .  S
C541        N542   1.358       .  A
C541        N546   1.357       .  A
N542        C543   1.359       .  A
C543        N544   1.362       .  A
N544        C545   1.359       .  A
C545        N546   1.357       .  A
C547        N548   1.358       .  A
C547        N552   1.360       .  A
C547        C952   1.480       .  S
N548        C549   1.356       .  A
C549        N550   1.354       .  A
N550        C551   1.359       .  A
C551        N552   1.361       .  A
C551        C961   1.487       .  S
C553        N554   1.359       .  A
C553        N558   1.364   1_455  A
C553        C925   1.488       .  S
N554        C555   1.353       .  A
C555        N556   1.353   1_455  A
N556        C557   1.361       .  A
C557        N558   1.364       .  A
C557        C937   1.495       .  S
C559        N560   1.356       .  A
C559        N564   1.362       .  A
C559        C940   1.492       .  S
N560        C561   1.353       .  A
C561        N562   1.355       .  A
N562        C563   1.361       .  A
C563        N564   1.363       .  A
C563        C964   1.487       .  S
O565       Ni573   1.918       .  S
O565        C575   1.282       .  A
O566       Ni573   1.921       .  S
O566        C576   1.282       .  A
O567       Ni573   1.927       .  S
O567        C577   1.283       .  A
O568       Ni573   1.922       .  S
O568        C578   1.283       .  A
O569       Ni574   1.907       .  S
O569        C578   1.279       .  A
O570       Ni574   1.912       .  S
O570        C577   1.281       .  A
O571       Ni574   1.919       .  S
O571        C576   1.283       .  A
O572       Ni574   1.917       .  S
O572        C575   1.281       .  A
Ni573      Ni574   2.382       .  S
C575       C1045   1.487       .  S
C576        C913   1.492       .  S
C577       C1000   1.494       .  S
C578        C904   1.487       .  S
O579       Ni587   1.912       .  S
O579        C589   1.280       .  A
O580       Ni587   1.908       .  S
O580        C590   1.281       .  A
O581       Ni587   1.910       .  S
O581        C591   1.280       .  A
O582       Ni587   1.920       .  S
O582        C592   1.283       .  A
O583       Ni588   1.924       .  S
O583        C592   1.282       .  A
O584       Ni588   1.920       .  S
O584        C591   1.283       .  A
O585       Ni588   1.928       .  S
O585        C590   1.283       .  A
O586       Ni588   1.929       .  S
O586        C589   1.284       .  A
Ni587      Ni588   2.383       .  S
C589       C1024   1.483       .  S
C590        C880   1.493       .  S
C591        C949   1.486       .  S
C592        C892   1.494       .  S
C593        N594   1.357       .  A
C593        N598   1.362   1_455  A
C593        C901   1.483       .  S
N594        C595   1.351       .  A
C595        N596   1.349   1_455  A
C595        C655   1.465       .  S
N596        C597   1.354       .  A
C597        N598   1.363       .  A
C597        C865   1.478       .  S
C599        N600   1.362       .  A
C599        N604   1.365       .  A
C599        C889   1.482       .  S
N600        C601   1.354       .  A
C601        N602   1.342       .  A
C601        C695   1.464       .  S
N602        C603   1.349       .  A
C603        N604   1.364       .  A
C603        C856   1.482       .  S
C605        N606   1.362       .  A
C605        N610   1.352       .  A
C605        C868   1.482       .  S
N606        C607   1.361       .  A
C607        N608   1.357       .  A
N608        C609   1.359       .  A
C609        N610   1.354       .  A
C609        C853   1.487       .  S
C611        N612   1.359       .  A
C611        N616   1.363       .  A
C611        C916   1.485       .  S
N612        C613   1.354       .  A
C613        N614   1.353       .  A
C613        C729   1.475       .  S
N614        C615   1.358       .  A
C615        N616   1.365       .  A
C615        C841   1.490       .  S
C617        N618   1.362       .  A
C617        N622   1.357       .  A
C617        C820   1.489       .  S
N618        C619   1.364       .  A
C619        N620   1.363       .  A
C619        C829   1.499       .  S
N620        C621   1.360       .  A
C621        N622   1.355       .  A
C621        C696   1.483       .  S
C623        N624   1.361       .  A
C623        N628   1.364       .  A
C623        C832   1.493       .  S
N624        C625   1.358       .  A
C625        N626   1.352       .  A
N626        C627   1.358       .  A
C627        N628   1.362       .  A
C627        C844   1.487       .  S
C629        N630   1.360       .  A
C629        N634   1.362       .  A
N630        C631   1.357       .  A
C631        N632   1.353       .  A
C631        C657   1.473       .  S
N632        C633   1.354       .  A
C633        N634   1.360       .  A
C633        C697   1.478       .  S
N635        C640   1.351       .  A
N635        C639   1.350       .  A
N635        H667   1.030       .  S
N636        C643   1.349       .  A
N636        C644   1.349       .  A
N637        C642   1.351       .  A
N637        C641   1.352       .  A
N637        H668   1.030       .  S
N638        C645   1.352       .  A
N638        C646   1.352       .  A
C639        C647   1.388   1_455  A
C639        C655   1.414       .  A
C640        C656   1.414       .  A
C640        C648   1.388   1_455  A
C641        C649   1.387       .  A
C641        C658   1.415       .  A
C642        C657   1.417       .  A
C642        C650   1.388       .  A
C643        C655   1.411       .  A
C643        C651   1.388       .  A
C644        C658   1.411       .  A
C644        C652   1.387       .  A
C645        C653   1.387       .  A
C645        C656   1.416       .  A
C646        C654   1.387       .  A
C646        C657   1.417       .  A
C647        C648   1.375       .  A
C647        H659   1.082       .  S
C648        H660   1.082       .  S
C649        C650   1.376       .  A
C649        H661   1.082       .  S
C650        H662   1.082       .  S
C651        C652   1.369       .  A
C651        H663   1.082       .  S
C652        H664   1.083       .  S
C653        C654   1.373       .  A
C653        H665   1.083       .  S
C654        H666   1.082       .  S
C656        C759   1.472       .  S
C658        C743   1.470       .  S
C669        N670   1.357       .  A
C669        N674   1.357       .  A
C669        C698   1.478       .  S
N670        C671   1.357       .  A
C671        N672   1.357       .  A
C671        C731   1.477       .  S
N672        C673   1.359       .  A
C673        N674   1.360       .  A
N675        C680   1.354       .  A
N675        C679   1.351       .  A
N675        H707   1.031       .  S
N676        C683   1.348       .  A
N676        C684   1.350       .  A
N677        C682   1.354       .  A
N677        C681   1.355       .  A
N677        H708   1.035       .  S
N678        C685   1.352       .  A
N678        C686   1.350       .  A
C679        C687   1.388       .  A
C679        C695   1.416       .  A
C680        C696   1.420       .  A
C680        C688   1.389       .  A
C681        C689   1.385       .  A
C681        C698   1.416       .  A
C682        C697   1.421       .  A
C682        C690   1.389       .  A
C683        C695   1.413       .  A
C683        C691   1.389       .  A
C684        C698   1.409       .  A
C684        C692   1.386       .  A
C685        C693   1.386       .  A
C685        C696   1.416       .  A
C686        C694   1.387       .  A
C686        C697   1.415       .  A
C687        C688   1.375       .  A
C687        H699   1.082       .  S
C688        H700   1.082       .  S
C689        C690   1.373       .  A
C689        H701   1.079       .  S
C690        H702   1.082       .  S
C691        C692   1.372       .  A
C691        H703   1.083       .  S
C692        H704   1.082       .  S
C693        C694   1.372       .  A
C693        H705   1.082       .  S
C694        H706   1.081       .  S
N709        C714   1.353       .  A
N709        C713   1.353       .  A
N709        H741   1.026       .  S
N710        C717   1.350       .  A
N710        C718   1.350       .  A
N711        C716   1.352       .  A
N711        C715   1.351       .  A
N711        H742   1.025       .  S
N712        C719   1.351       .  A
N712        C720   1.351       .  A
C713        C721   1.388       .  A
C713        C729   1.422       .  A
C714        C730   1.423       .  A
C714        C722   1.388       .  A
C715        C723   1.388       .  A
C715        C732   1.419       .  A
C716        C731   1.421       .  A
C716        C724   1.388       .  A
C717        C729   1.416       .  A
C717        C725   1.388       .  A
C718        C732   1.416       .  A
C718        C726   1.388       .  A
C719        C727   1.387       .  A
C719        C730   1.419       .  A
C720        C728   1.387       .  A
C720        C731   1.418       .  A
C721        C722   1.378       .  A
C721        H733   1.082       .  S
C722        H734   1.082       .  S
C723        C724   1.374       .  A
C723        H735   1.083       .  S
C724        H736   1.080       .  S
C725        C726   1.371       .  A
C725        H737   1.082       .  S
C726        H738   1.082       .  S
C727        C728   1.373       .  A
C727        H739   1.082       .  S
C728        H740   1.082       .  S
C730        C751   1.478       .  S
C732        C745   1.470       .  S
C743        N744   1.353       .  A
C743        N748   1.358       .  A
N744        C745   1.353       .  A
C745        N746   1.355       .  A
N746        C747   1.358       .  A
C747        N748   1.359       .  A
C749        N750   1.358       .  A
C749        N754   1.362       .  A
C749        C877   1.487       .  S
N750        C751   1.352       .  A
C751        N752   1.352       .  A
N752        C753   1.361       .  A
C753        N754   1.362       .  A
C753        C805   1.494       .  S
C755        N756   1.358   1_455  A
C755        N760   1.357       .  A
C755        C781   1.476       .  S
N756        C757   1.358       .  A
C757        N758   1.360       .  A
C757        C796   1.487       .  S
N758        C759   1.353   1_655  A
C759        N760   1.353       .  A
C761        N762   1.358       .  A
C761        N766   1.362       .  A
C761        C793   1.482       .  S
N762        C763   1.351       .  A
C763        N764   1.353       .  A
N764        C765   1.357       .  A
C765        N766   1.362       .  A
C765        C808   1.490       .  S
O767       Ni775   1.918       .  S
O767        C777   1.282       .  A
O768       Ni775   1.922       .  S
O768        C778   1.283       .  A
O769       Ni775   1.919       .  S
O769        C779   1.282       .  A
O770       Ni775   1.915       .  S
O770        C780   1.280       .  A
O771       Ni776   1.919       .  S
O771        C780   1.283       .  A
O772       Ni776   1.924       .  S
O772        C779   1.283       .  A
O773       Ni776   1.908       .  S
O773        C778   1.280       .  A
O774       Ni776   1.906       .  S
O774        C777   1.279       .  A
Ni775      Ni776   2.382       .  S
C777        C784   1.483       .  S
C778        C973   1.490       .  S
C779        C817   1.494       .  S
C780        C928   1.493       .  S
C781        C782   1.402       .  A
C781        C786   1.412       .  A
C782        C783   1.397       .  A
C782        H787   1.085       .  S
C783        C784   1.416       .  A
C783        C790   1.445       .  S
C784        C785   1.406       .  A
C785        C786   1.399       .  A
C785        H788   1.084       .  S
C786        C789   1.444       .  S
C789        N791   1.157   1_455  T
C790        N792   1.157       .  T
C793        C794   1.405       .  A
C793        C798   1.413       .  A
C794        C795   1.403       .  A
C794        H799   1.085       .  S
C795        C796   1.418       .  A
C795        C802   1.445       .  S
C796        C797   1.404       .  A
C797        C798   1.393       .  A
C797        H800   1.085       .  S
C798        C801   1.445       .  S
C801        N803   1.157       .  T
C802        N804   1.158       .  T
C805        C806   1.406       .  A
C805        C810   1.419       .  A
C806        C807   1.394       .  A
C806        H811   1.084       .  S
C807        C808   1.417       .  A
C807        C814   1.446       .  S
C808        C809   1.407       .  A
C809        C810   1.405       .  A
C809        H812   1.085       .  S
C810        C813   1.444       .  S
C813        N815   1.158       .  T
C814        N816   1.158       .  T
C817        C818   1.409       .  A
C817        C822   1.415       .  A
C818        C819   1.404       .  A
C818        H823   1.084       .  S
C819        C820   1.413       .  A
C819        C826   1.444       .  S
C820        C821   1.407       .  A
C821        C822   1.403       .  A
C821        H824   1.085       .  S
C822        C825   1.444       .  S
C825        N827   1.157       .  T
C826        N828   1.157       .  T
C829        C830   1.409       .  A
C829        C834   1.418   1_565  A
C830        C831   1.405   1_565  A
C830        H835   1.085       .  S
C831        C832   1.415       .  A
C831        C838   1.445       .  S
C832        C833   1.404       .  A
C833        C834   1.403       .  A
C833        H836   1.082       .  S
C834        C837   1.444       .  S
C837        N839   1.157       .  T
C838        N840   1.158       .  T
C841        C842   1.406       .  A
C841        C846   1.418       .  A
C842        C843   1.403       .  A
C842        H847   1.084       .  S
C843        C844   1.414       .  A
C843        C850   1.443       .  S
C844        C845   1.404       .  A
C845        C846   1.397       .  A
C845        H848   1.085       .  S
C846        C849   1.446       .  S
C849        N851   1.158       .  T
C850        N852   1.157       .  T
C853        C854   1.413       .  A
C853        C858   1.413       .  A
C854        C855   1.401       .  A
C854        H859   1.084       .  S
C855        C856   1.408   1_545  A
C855        C862   1.444       .  S
C856        C857   1.408   1_565  A
C857        C858   1.393       .  A
C857        H860   1.085   1_545  S
C858        C861   1.446       .  S
C861        N863   1.158       .  T
C862        N864   1.157   1_545  T
C865        C866   1.400       .  A
C865        C870   1.416       .  A
C866        C867   1.398       .  A
C866        H871   1.085       .  S
C867        C868   1.419       .  A
C867        C874   1.445       .  S
C868        C869   1.402       .  A
C869        C870   1.398       .  A
C869        H872   1.085       .  S
C870        C873   1.445       .  S
C873        N875   1.157       .  T
C874        N876   1.157       .  T
C877        C878   1.406       .  A
C877        C882   1.414       .  A
C878        C879   1.405       .  A
C878        H883   1.085       .  S
C879        C880   1.417       .  A
C879        C886   1.443       .  S
C880        C881   1.407       .  A
C881        C882   1.396       .  A
C881        H884   1.085       .  S
C882        C885   1.446       .  S
C885        N887   1.158       .  T
C886        N888   1.157       .  T
C889        C890   1.402       .  A
C889        C894   1.410       .  A
C890        C891   1.405       .  A
C890        H895   1.085       .  S
C891        C892   1.420       .  A
C891        C898   1.443       .  S
C892        C893   1.408       .  A
C893        C894   1.400       .  A
C893        H896   1.084       .  S
C894        C897   1.445       .  S
C897        N899   1.157       .  T
C898        N900   1.157       .  T
C901        C902   1.404       .  A
C901        C906   1.413       .  A
C902        C903   1.396       .  A
C902        H907   1.085       .  S
C903        C904   1.416       .  A
C903        C910   1.445       .  S
C904        C905   1.407       .  A
C905        C906   1.402       .  A
C905        H908   1.084       .  S
C906        C909   1.443   1_455  S
C909        N911   1.157       .  T
C910        N912   1.157       .  T
C913        C914   1.405       .  A
C913        C918   1.419       .  A
C914        C915   1.400       .  A
C914        H919   1.085       .  S
C915        C916   1.412       .  A
C915        C922   1.445       .  S
C916        C917   1.404       .  A
C917        C918   1.407       .  A
C917        H920   1.085       .  S
C918        C921   1.444       .  S
C921        N923   1.158       .  T
C922        N924   1.157       .  T
C925        C926   1.405       .  A
C925        C930   1.415       .  A
C926        C927   1.406       .  A
C926        H931   1.085       .  S
C927        C928   1.420       .  A
C927        C934   1.445       .  S
C928        C929   1.404       .  A
C929        C930   1.398       .  A
C929        H932   1.085       .  S
C930        C933   1.445       .  S
C933        N935   1.157       .  T
C934        N936   1.158       .  T
C937        C938   1.406       .  A
C937        C942   1.418       .  A
C938        C939   1.395       .  A
C938        H943   1.085       .  S
C939        C940   1.417       .  A
C939        C946   1.446       .  S
C940        C941   1.408       .  A
C941        C942   1.406       .  A
C941        H944   1.085       .  S
C942        C945   1.444       .  S
C945        N947   1.157       .  T
C946        N948   1.158       .  T
C949        C950   1.407       .  A
C949        C954   1.416       .  A
C950        C951   1.401       .  A
C950        H955   1.085       .  S
C951        C952   1.411       .  A
C951        C958   1.444       .  S
C952        C953   1.403       .  A
C953        C954   1.400       .  A
C953        H956   1.085       .  S
C954        C957   1.445       .  S
C957        N959   1.157       .  T
C958        N960   1.157       .  T
C961        C962   1.405       .  A
C961        C966   1.416       .  A
C962        C963   1.398       .  A
C962        H967   1.085       .  S
C963        C964   1.414       .  A
C963        C970   1.445       .  S
C964        C965   1.406       .  A
C965        C966   1.404       .  A
C965        H968   1.085       .  S
C966        C969   1.444       .  S
C969        N971   1.157       .  T
C970        N972   1.157       .  T
C973        C974   1.408       .  A
C973        C978   1.417       .  A
C974        C975   1.404       .  A
C974        H979   1.084       .  S
C975        C976   1.413       .  A
C975        C982   1.444       .  S
C976        C977   1.403       .  A
C977        C978   1.398       .  A
C977        H980   1.085       .  S
C978        C981   1.445       .  S
C981        N983   1.157       .  T
C982        N984   1.157       .  T
C985        C986   1.408   1_565  A
C985        C990   1.417       .  A
C986        C987   1.404       .  A
C986        H991   1.084       .  S
C987        C988   1.417       .  A
C987        C994   1.445       .  S
C988        C989   1.404       .  A
C989        C990   1.399   1_545  A
C989        H992   1.085       .  S
C990        C993   1.445       .  S
C993        N995   1.157       .  T
C994        N996   1.158       .  T
C997        C998   1.402       .  A
C997       C1002   1.413       .  A
C998        C999   1.404       .  A
C998       H1003   1.085       .  S
C999       C1000   1.418       .  A
C999       C1006   1.443       .  S
C1000      C1001   1.408       .  A
C1001      C1002   1.400       .  A
C1001      H1004   1.085       .  S
C1002      C1005   1.446       .  S
C1005      N1007   1.158       .  T
C1006      N1008   1.157       .  T
C1009      C1010   1.403       .  A
C1009      C1014   1.415       .  A
C1010      C1011   1.405       .  A
C1010      H1015   1.085       .  S
C1011      C1012   1.418       .  A
C1011      C1018   1.444       .  S
C1012      C1013   1.403       .  A
C1013      C1014   1.394       .  A
C1013      H1016   1.085       .  S
C1014      C1017   1.446       .  S
C1017      N1019   1.157       .  T
C1018      N1020   1.157       .  T
C1021      C1022   1.408       .  A
C1021      C1026   1.422       .  A
C1022      C1023   1.403       .  A
C1022      H1027   1.084       .  S
C1023      C1024   1.409       .  A
C1023      C1030   1.442       .  S
C1024      C1025   1.403       .  A
C1025      C1026   1.402       .  A
C1025      H1028   1.085       .  S
C1026      C1029   1.446       .  S
C1029      N1031   1.158       .  T
C1030      N1032   1.157       .  T
C1033      C1034   1.402   1_565  A
C1033      C1038   1.415   1_565  A
C1034      C1035   1.401       .  A
C1034      H1039   1.085   1_545  S
C1035      C1036   1.417       .  A
C1035      C1042   1.444       .  S
C1036      C1037   1.402       .  A
C1037      C1038   1.399       .  A
C1037      H1040   1.085       .  S
C1038      C1041   1.445       .  S
C1041      N1043   1.157       .  T
C1042      N1044   1.157       .  T
C1045      C1046   1.407       .  A
C1045      C1050   1.416       .  A
C1046      C1047   1.401       .  A
C1046      H1051   1.085       .  S
C1047      C1048   1.412       .  A
C1047      C1054   1.445       .  S
C1048      C1049   1.403       .  A
C1049      C1050   1.399       .  A
C1049      H1052   1.085       .  S
C1050      C1053   1.444       .  S
C1053      N1055   1.157       .  T
C1054      N1056   1.157   1_455  T
C1057      C1058   1.403       .  A
C1057      C1062   1.414       .  A
C1058      C1059   1.398       .  A
C1058      H1063   1.085       .  S
C1059      C1060   1.415       .  A
C1059      C1066   1.445       .  S
C1060      C1061   1.402       .  A
C1061      C1062   1.396       .  A
C1061      H1064   1.085       .  S
C1062      C1065   1.444       .  S
C1065      N1067   1.157       .  T
C1066      N1068   1.158       .  T
C1069      C1070   1.408       .  A
C1069      C1074   1.413       .  A
C1070      C1071   1.398       .  A
C1070      H1075   1.085       .  S
C1071      C1072   1.411       .  A
C1071      C1078   1.445       .  S
C1072      C1073   1.406       .  A
C1073      C1074   1.400       .  A
C1073      H1076   1.085       .  S
C1074      C1077   1.444       .  S
C1077      N1079   1.157       .  T
C1078      N1080   1.157   1_556  T
C1081      C1082   1.407       .  A
C1081      C1086   1.412       .  A
C1082      C1083   1.397       .  A
C1082      H1087   1.085       .  S
C1083      C1084   1.415       .  A
C1083      C1090   1.445       .  S
C1084      C1085   1.409       .  A
C1085      C1086   1.403       .  A
C1085      H1088   1.084       .  S
C1086      C1089   1.444   1_455  S
C1089      N1091   1.157       .  T
C1090      N1092   1.158       .  T
C1093      C1094   1.406       .  A
C1093      C1098   1.413       .  A
C1094      C1095   1.403       .  A
C1094      H1099   1.085       .  S
C1095      C1096   1.413       .  A
C1095      C1102   1.443       .  S
C1096      C1097   1.407       .  A
C1097      C1098   1.402       .  A
C1097      H1100   1.085       .  S
C1098      C1101   1.445       .  S
C1101      N1103   1.158       .  T
C1102      N1104   1.157       .  T
C1105      C1106   1.409       .  A
C1105      C1110   1.416       .  A
C1106      C1107   1.399       .  A
C1106      H1111   1.084       .  S
C1107      C1108   1.415       .  A
C1107      C1114   1.447       .  S
C1108      C1109   1.405       .  A
C1109      C1110   1.404       .  A
C1109      H1112   1.085       .  S
C1110      C1113   1.442       .  S
C1113      N1115   1.157       .  T
C1114      N1116   1.158       .  T
C1117      C1118   1.407       .  A
C1117      C1122   1.416       .  A
C1118      C1119   1.398       .  A
C1118      H1123   1.085       .  S
C1119      C1120   1.415       .  A
C1119      C1126   1.447       .  S
C1120      C1121   1.405       .  A
C1121      C1122   1.404       .  A
C1121      H1124   1.085       .  S
C1122      C1125   1.443   1_455  S
C1125      N1127   1.157       .  T
C1126      N1128   1.158       .  T
C1129      C1130   1.404       .  A
C1129      C1134   1.413       .  A
C1130      C1131   1.402       .  A
C1130      H1135   1.085       .  S
C1131      C1132   1.415       .  A
C1131      C1138   1.444       .  S
C1132      C1133   1.406       .  A
C1133      C1134   1.398       .  A
C1133      H1136   1.085       .  S
C1134      C1137   1.445       .  S
C1137      N1139   1.157       .  T
C1138      N1140   1.157       .  T
C1141      C1142   1.403       .  A
C1141      C1146   1.413       .  A
C1142      C1143   1.397       .  A
C1142      H1147   1.085       .  S
C1143      C1144   1.414       .  A
C1143      C1150   1.444       .  S
C1144      C1145   1.407       .  A
C1145      C1146   1.403       .  A
C1145      H1148   1.085       .  S
C1146      C1149   1.444   1_545  S
C1149      N1151   1.157       .  T
C1150      N1152   1.157       .  T
C1153      C1154   1.407       .  A
C1153      C1158   1.415       .  A
C1154      C1155   1.406       .  A
C1154      H1159   1.085       .  S
C1155      C1156   1.413       .  A
C1155      C1162   1.444       .  S
C1156      C1157   1.401       .  A
C1157      C1158   1.400       .  A
C1157      H1160   1.085       .  S
C1158      C1161   1.444       .  S
C1161      N1163   1.157       .  T
C1162      N1164   1.157       .  T
C1165      C1166   1.407   1_545  A
C1165      C1170   1.414       .  A
C1166      C1167   1.404   1_565  A
C1166      H1171   1.084       .  S
C1167      C1168   1.417       .  A
C1167      C1174   1.444       .  S
C1168      C1169   1.406       .  A
C1169      C1170   1.395       .  A
C1169      H1172   1.084       .  S
C1170      C1173   1.445       .  S
C1173      N1175   1.157       .  T
C1174      N1176   1.158   1_545  T
C1177      C1178   1.406       .  A
C1177      C1182   1.410       .  A
C1178      C1179   1.409       .  A
C1178      H1183   1.084       .  S
C1179      C1180   1.417       .  A
C1179      C1186   1.444       .  S
C1180      C1181   1.406       .  A
C1181      C1182   1.396       .  A
C1181      H1184   1.085       .  S
C1182      C1185   1.445       .  S
C1185      N1187   1.157       .  T
C1186      N1188   1.158       .  T
C1189      C1190   1.409       .  A
C1189      C1194   1.415       .  A
C1190      C1191   1.398       .  A
C1190      H1195   1.085       .  S
C1191      C1192   1.410       .  A
C1191      C1198   1.445       .  S
C1192      C1193   1.402       .  A
C1193      C1194   1.401       .  A
C1193      H1196   1.085       .  S
C1194      C1197   1.443       .  S
C1197      N1199   1.157       .  T
C1198      N1200   1.158       .  T
C1201      C1202   1.405       .  A
C1201      C1206   1.410       .  A
C1202      C1203   1.409       .  A
C1202      H1207   1.085       .  S
C1203      C1204   1.418       .  A
C1203      C1210   1.444       .  S
C1204      C1205   1.404       .  A
C1205      C1206   1.396       .  A
C1205      H1208   1.085       .  S
C1206      C1209   1.445       .  S
C1209      N1211   1.157       .  T
C1210      N1212   1.157       .  T
C1213      C1214   1.402       .  A
C1213      C1218   1.410       .  A
C1214      C1215   1.405       .  A
C1214      H1219   1.085       .  S
C1215      C1216   1.418       .  A
C1215      C1222   1.444       .  S
C1216      C1217   1.405       .  A
C1217      C1218   1.397       .  A
C1217      H1220   1.085       .  S
C1218      C1221   1.445       .  S
C1221      N1223   1.157       .  T
C1222      N1224   1.157       .  T
C1225      C1226   1.404       .  A
C1225      C1230   1.414       .  A
C1226      C1227   1.405       .  A
C1226      H1231   1.085       .  S
C1227      C1228   1.415       .  A
C1227      C1234   1.443       .  S
C1228      C1229   1.403       .  A
C1229      C1230   1.400       .  A
C1229      H1232   1.085       .  S
C1230      C1233   1.445       .  S
C1233      N1235   1.157       .  T
C1234      N1236   1.157       .  T
C1237      C1238   1.404       .  A
C1237      C1242   1.413       .  A
C1238      C1239   1.400       .  A
C1238      H1243   1.085       .  S
C1239      C1240   1.417       .  A
C1239      C1246   1.444       .  S
C1240      C1241   1.408       .  A
C1241      C1242   1.405       .  A
C1241      H1244   1.084       .  S
C1242      C1245   1.444   1_545  S
C1245      N1247   1.157       .  T
C1246      N1248   1.157       .  T
C1249      C1250   1.408       .  A
C1249      C1254   1.416       .  A
C1250      C1251   1.404       .  A
C1250      H1255   1.084       .  S
C1251      C1252   1.414       .  A
C1251      C1258   1.444       .  S
C1252      C1253   1.405       .  A
C1253      C1254   1.396       .  A
C1253      H1256   1.085       .  S
C1254      C1257   1.445       .  S
C1257      N1259   1.157       .  T
C1258      N1260   1.157       .  T
C1261      C1262   1.409       .  A
C1261      C1266   1.419       .  A
C1262      C1263   1.408       .  A
C1262      H1267   1.084       .  S
C1263      C1264   1.414       .  A
C1263      C1270   1.443       .  S
C1264      C1265   1.404       .  A
C1265      C1266   1.402       .  A
C1265      H1268   1.085       .  S
C1266      C1269   1.444       .  S
C1269      N1271   1.157       .  T
C1270      N1272   1.157   1_545  T
C1273      C1274   1.407       .  A
C1273      C1278   1.413       .  A
C1274      C1275   1.399       .  A
C1274      H1279   1.085       .  S
C1275      C1276   1.412       .  A
C1275      C1282   1.445       .  S
C1276      C1277   1.408       .  A
C1277      C1278   1.406       .  A
C1277      H1280   1.085       .  S
C1278      C1281   1.444       .  S
C1281      N1283   1.157       .  T
C1282      N1284   1.158       .  T
C1285      C1286   1.398       .  A
C1285      C1290   1.415       .  A
C1286      C1287   1.394       .  A
C1286      H1291   1.085       .  S
C1287      C1288   1.418       .  A
C1287      C1294   1.445       .  S
C1288      C1289   1.406       .  A
C1289      C1290   1.404       .  A
C1289      H1292   1.085       .  S
C1290      C1293   1.444       .  S
C1293      N1295   1.157       .  T
C1294      N1296   1.157       .  T
C1297      C1298   1.405       .  A
C1297      C1302   1.414       .  A
C1298      C1299   1.401       .  A
C1298      H1303   1.084   1_455  S
C1299      C1300   1.414       .  A
C1299      C1306   1.444       .  S
C1300      C1301   1.403       .  A
C1301      C1302   1.394       .  A
C1301      H1304   1.085       .  S
C1302      C1305   1.445       .  S
C1305      N1307   1.157       .  T
C1306      N1308   1.157       .  T
C1309      C1310   1.407       .  A
C1309      C1314   1.418       .  A
C1310      C1311   1.401       .  A
C1310      H1315   1.085       .  S
C1311      C1312   1.414       .  A
C1311      C1318   1.444       .  S
C1312      C1313   1.404       .  A
C1313      C1314   1.400       .  A
C1313      H1316   1.085       .  S
C1314      C1317   1.445       .  S
C1317      N1319   1.157       .  T
C1318      N1320   1.157       .  T
C1321      C1322   1.404   1_655  A
C1321      C1326   1.415       .  A
C1322      C1323   1.398       .  A
C1322      H1327   1.085       .  S
C1323      C1324   1.415       .  A
C1323      C1330   1.445       .  S
C1324      C1325   1.405       .  A
C1325      C1326   1.402   1_455  A
C1325      H1328   1.085       .  S
C1326      C1329   1.444       .  S
C1329      N1331   1.157       .  T
C1330      N1332   1.157       .  T
C1333      C1334   1.406       .  A
C1333      C1338   1.413       .  A
C1334      C1335   1.398       .  A
C1334      H1339   1.085       .  S
C1335      C1336   1.417       .  A
C1335      C1342   1.445       .  S
C1336      C1337   1.410       .  A
C1337      C1338   1.404       .  A
C1337      H1340   1.084       .  S
C1338      C1341   1.443       .  S
C1341      N1343   1.157       .  T
C1342      N1344   1.158       .  T
C1345      C1346   1.403       .  A
C1345      C1350   1.419       .  A
C1346      C1347   1.394       .  A
C1346      H1351   1.085       .  S
C1347      C1348   1.417       .  A
C1347      C1354   1.446       .  S
C1348      C1349   1.405       .  A
C1349      C1350   1.406       .  A
C1349      H1352   1.084       .  S
C1350      C1353   1.444       .  S
C1353      N1355   1.158       .  T
C1354      N1356   1.157       .  T
