geometry optimzed in LAMMPS
_audit_creation_date              2020-11-30 
_audit_creation_method            'lammps2cif' 
_symmetry_space_group_name_H-M    'P1' 
_symmetry_Int_Tables_number       1 
_symmetry_cell_setting            triclinic 
loop_ 
_symmetry_equiv_pos_as_xyz 
  x,y,z 
_cell_length_a                    44.95955245 
_cell_length_b                    45.11213827004137 
_cell_length_c                    45.14467397804201 
_cell_angle_alpha                 89.35724993300941 
_cell_angle_beta                  90.22716314073878 
_cell_angle_gamma                 90.72228517377556 
loop_ 
_atom_site_label 
_atom_site_type_symbol 
_atom_site_fract_x 
_atom_site_fract_y 
_atom_site_fract_z 
_atom_site_charge 
O1          O  0.74493738  0.79937274  0.71586660    -0.88800
C2          C  0.66927938  0.75174883  0.72846202     0.87200
Mg3        Mg  0.78199349  0.78079593  0.69352201     1.58100
O4          O  0.71367039  0.75948811  0.79161098    -0.88500
O5          O  0.73451117  0.81805676  0.75920114    -0.75900
C6          C  0.79946837  0.64573843  0.75248620     0.92300
O7          O  0.71441876  0.75093035  0.67437690    -0.75700
O8          O  0.80396747  0.66048268  0.72870085    -0.83200
Mg9        Mg  0.70262286  0.79622941  0.69419881     1.58000
C10         C  0.73195372  0.69154114  0.84826323     0.92200
O11         O  0.68974482  0.84348788  0.71146764    -0.81400
H12         H  0.73572965  0.78567819  0.81982935    -0.06800
C13         C  0.72177304  0.68151122  0.74827416     0.87200
O14         O  0.80382907  0.76864301  0.73804889    -0.75900
O15         O  0.68532174  0.77384914  0.73277698    -0.88700
O16         O  0.70978659  0.70512437  0.83714614    -0.81500
C17         C  0.63465986  0.75696878  0.80684004     0.92300
C18         C  0.67546604  0.85396522  0.73339569     0.92200
Mg19       Mg  0.77034993  0.70325651  0.78961256     1.58000
O20         O  0.78517830  0.65636209  0.77427899    -0.81400
O21         O  0.75815402  0.74874776  0.80854223    -0.75700
O22         O  0.64391006  0.77881949  0.79091653    -0.81500
O23         O  0.72000615  0.81689701  0.65125690    -0.83200
O24         O  0.82713678  0.71800285  0.69412303    -0.81600
C25         C  0.73552798  0.76538071  0.80734735     0.86600
O26         O  0.78679647  0.72451206  0.75077071    -0.88700
O27         O  0.72811519  0.69900938  0.76830679    -0.88800
O28         O  0.73712084  0.68015548  0.72477214    -0.75900
Mg29       Mg  0.69003685  0.79657373  0.77374568     1.58000
O30         O  0.65118506  0.73507307  0.81241411    -0.83200
H31         H  0.77057562  0.83046132  0.73483810    -0.07000
O32         O  0.75845834  0.73910367  0.69193703    -0.88500
H33         H  0.73648132  0.71384915  0.66283322    -0.06800
H34         H  0.81776779  0.74595308  0.77447828    -0.07000
C35         C  0.73676966  0.73388230  0.67570363     0.86600
C36         C  0.75073280  0.81666845  0.73624471     0.87200
C37         C  0.80360513  0.74599462  0.75505870     0.87200
H38         H  0.70199952  0.66777625  0.75035312    -0.06900
O39         O  0.66943199  0.72920539  0.74572016    -0.76000
Mg40       Mg  0.78140740  0.70131615  0.71012651     1.58000
H41         H  0.65536492  0.75121889  0.70890659    -0.07000
C42         C  0.74289864  0.81036608  0.63623208     0.92200
O43         O  0.82257531  0.76193419  0.67163086    -0.83200
C44         C  0.83775643  0.73922023  0.67849527     0.92300
O45         O  0.66773364  0.83738001  0.75517077    -0.83200
Mg46       Mg  0.69136084  0.71747892  0.79057555     1.58200
O47         O  0.76444462  0.79575458  0.64735179    -0.81500
O48         O  0.75382279  0.68349437  0.83256173    -0.83200
C49         C  0.64281838  0.03229025  0.75067713     0.86000
C50         C  0.62605306  0.02718964  0.77967846    -0.54200
C51         C  0.60875783  0.00226166  0.78081357     0.09000
C52         C  0.60970990  0.98402474  0.75215825     0.19900
C53         C  0.66049027  0.00302958  0.74667913    -0.54900
C54         C  0.64291112  0.97785869  0.74751448     0.09100
C55         C  0.61943166  0.03056816  0.72606699    -0.54500
C56         C  0.60171491  0.00588064  0.72697064     0.09600
H57         H  0.62881926  0.04168731  0.79859786     0.14200
H58         H  0.59596897  0.96344456  0.75256127    -0.00100
H59         H  0.68422110  0.00167511  0.74314904     0.14500
H60         H  0.61859634  0.04640890  0.70779841     0.14200
O61         O  0.78290931  0.29405157  0.76471596    -0.88800
C62         C  0.79233913  0.27001914  0.67971715     0.87200
Mg63       Mg  0.78682412  0.26259879  0.80007466     1.58100
O64         O  0.71984571  0.28526966  0.70066564    -0.88500
O65         O  0.75117478  0.32633361  0.74681482    -0.75900
C66         C  0.70343217  0.14832839  0.75680409     0.92300
O67         O  0.82539129  0.24462685  0.73711841    -0.75700
O68         O  0.72703571  0.15292787  0.77188006    -0.83200
Mg69       Mg  0.81852061  0.29495299  0.73309941     1.58000
C70         C  0.64842202  0.23356807  0.68128411     0.92200
O71         O  0.81509574  0.34590288  0.72978163    -0.81400
H72         H  0.69116728  0.31309653  0.71901561    -0.06800
C73         C  0.74196565  0.19882563  0.69961269     0.87200
O74         O  0.73632206  0.25738994  0.80321457    -0.75900
O75         O  0.78613793  0.28810262  0.69917572    -0.88700
O76         O  0.66947977  0.24753958  0.66802223    -0.81500
C77         C  0.73910097  0.30271275  0.62430259     0.92300
C78         C  0.80326803  0.36594494  0.71364053     0.92200
Mg79       Mg  0.69061091  0.21996517  0.73749632     1.58000
O80         O  0.69050985  0.16919514  0.74261335    -0.81400
O81         O  0.68664284  0.27051950  0.73337662    -0.75700
O82         O  0.75254510  0.31648272  0.64511879    -0.81500
O83         O  0.85482392  0.29989625  0.76791574    -0.83200
O84         O  0.76202554  0.19236956  0.82139398    -0.81600
C85         C  0.69877807  0.29054054  0.71730021     0.86600
O86         O  0.72434534  0.22430025  0.77002234    -0.88700
O87         O  0.72429970  0.21907331  0.70423228    -0.88800
O88         O  0.75794843  0.18778404  0.72009329    -0.75900
Mg89       Mg  0.75173124  0.32025038  0.69615360     1.58000
O90         O  0.72089205  0.28167485  0.62995333    -0.83200
H91         H  0.76133433  0.32233905  0.79051624    -0.07000
O92         O  0.79060899  0.22835661  0.76740121    -0.88500
H93         H  0.82158388  0.20179309  0.75092844    -0.06800
H94         H  0.69445330  0.24111410  0.79762955    -0.07000
C95         C  0.81294731  0.22398272  0.75217232     0.86600
C96         C  0.76529749  0.31458743  0.76834902     0.87200
C97         C  0.71745404  0.24045649  0.79076439     0.87200
H98         H  0.74484417  0.19121303  0.67720741    -0.06900
O99         O  0.77259142  0.25376674  0.66737956    -0.76000
Mg100      Mg  0.75939260  0.19233148  0.77049514     1.58000
H101        H  0.81538052  0.26737127  0.67359245    -0.07000
C102        C  0.85840269  0.28402579  0.79108983     0.92200
O103        O  0.78939242  0.23000541  0.83838268    -0.83200
C104        C  0.77523966  0.20571371  0.84254181     0.92300
O105        O  0.78388381  0.35986047  0.69392353    -0.83200
Mg106      Mg  0.72129511  0.25044925  0.66913804     1.58200
O107        O  0.83719575  0.26880676  0.80239128    -0.81500
O108        O  0.65287433  0.21753423  0.70420777    -0.83200
C109        C  0.89152528  0.49743191  0.78260089     0.86000
C110        C  0.87139456  0.47170527  0.77309648    -0.54200
C111        C  0.85466292  0.47703937  0.74851485     0.09000
C112        C  0.85928114  0.50843224  0.73525108     0.19900
C113        C  0.90992337  0.50488460  0.75409521    -0.54900
C114        C  0.89303254  0.51076518  0.72900685     0.09100
C115        C  0.87146922  0.52437274  0.78522533    -0.54500
C116        C  0.85464330  0.53046867  0.76090869     0.09600
H117        H  0.87152599  0.45017649  0.78414414     0.14200
H118        H  0.84458682  0.51208419  0.71586507    -0.00100
H119        H  0.93393074  0.50625679  0.75356289     0.14500
H120        H  0.87250778  0.53920143  0.80401635     0.14200
C121        C  0.73932329  0.86521123  0.46142908     0.86000
C122        C  0.76623492  0.88563854  0.46629328    -0.54200
C123        C  0.76728397  0.89910814  0.49305078     0.09000
C124        C  0.74074799  0.89053871  0.51340902     0.19900
C125        C  0.74145329  0.84302344  0.48821380    -0.54900
C126        C  0.74190100  0.85644177  0.51558526     0.09100
C127        C  0.71187863  0.88338542  0.46848637    -0.54500
C128        C  0.71199508  0.89634921  0.49551398     0.09600
H129        H  0.78455235  0.88728211  0.45070368     0.14200
H130        H  0.74115310  0.90192245  0.53507910    -0.00100
H131        H  0.74396189  0.81938380  0.48604782     0.14500
H132        H  0.69222871  0.88322611  0.45435658     0.14200
O133        O  0.69892347  0.72913373  0.23084665    -0.88800
C134        C  0.74579553  0.74663168  0.30575582     0.87200
Mg135      Mg  0.71847315  0.70794841  0.19393899     1.58100
O136        O  0.73512428  0.80878140  0.25965377    -0.88500
O137        O  0.67827926  0.77201060  0.23956959    -0.75900
C138        C  0.85237252  0.77191524  0.17880812     0.92300
O139        O  0.75161801  0.69199022  0.26056493    -0.75700
O140        O  0.83711633  0.74975422  0.16998843    -0.83200
Mg141      Mg  0.70530089  0.70849368  0.27333872     1.58000
C142        C  0.80374504  0.86757423  0.24100106     0.92200
O143        O  0.65773043  0.72116542  0.28921227    -0.81400
H144        H  0.70819082  0.83628567  0.23755788    -0.06800
C145        C  0.81423147  0.76782124  0.25263585     0.87200
O146        O  0.72782842  0.75341146  0.17177781    -0.75900
O147        O  0.72442088  0.74906211  0.28857452    -0.88700
O148        O  0.78896175  0.85670092  0.26280763    -0.81500
C149        C  0.73540730  0.82272690  0.33887399     0.92300
C150        C  0.64564377  0.74276222  0.30251980     0.92200
Mg151      Mg  0.79224837  0.80828116  0.20388522     1.58000
O152        O  0.84037341  0.79337448  0.19230567    -0.81400
O153        O  0.74586084  0.82633359  0.21527634    -0.75700
O154        O  0.71528715  0.80532410  0.32883510    -0.81500
O155        O  0.68804553  0.66396513  0.25769259    -0.83200
O156        O  0.77979597  0.71280628  0.14669066    -0.81600
C157        C  0.72892987  0.82443841  0.23780356     0.86600
O158        O  0.77161499  0.76877491  0.18775309    -0.88700
O159        O  0.79624787  0.78754520  0.24643698    -0.88800
O160        O  0.81689286  0.74487874  0.23674317    -0.75900
Mg161      Mg  0.69873401  0.78831002  0.28324868     1.58000
O162        O  0.75685594  0.83214708  0.32284462    -0.83200
H163        H  0.66669090  0.74568179  0.20512503    -0.07000
O164        O  0.76059865  0.70919564  0.21580672    -0.88500
H165        H  0.78861719  0.68226092  0.23717895    -0.06800
H166        H  0.74806337  0.79145952  0.15762579    -0.07000
C167        C  0.76766821  0.69376774  0.23748579     0.86600
C168        C  0.68050830  0.74843251  0.22460138     0.87200
C169        C  0.74946501  0.77191233  0.17163311     0.87200
H170        H  0.82755859  0.76980391  0.27253118    -0.06900
O171        O  0.76710488  0.76544385  0.30603706    -0.76000
Mg172      Mg  0.79675568  0.72939973  0.19236128     1.58000
H173        H  0.74676954  0.72753221  0.32041246    -0.07000
C174        C  0.69546017  0.64889553  0.23525834     0.92200
O175        O  0.73758382  0.68725411  0.15349845    -0.83200
C176        C  0.75905994  0.69579844  0.13716515     0.92300
O177        O  0.65883235  0.76758412  0.30599713    -0.83200
Mg178      Mg  0.77679721  0.81017075  0.28267151     1.58200
O179        O  0.70784432  0.66082307  0.21261697    -0.81500
O180        O  0.81146773  0.85147733  0.21956388    -0.83200
C181        C  0.78811542  0.61418322  0.98701784     0.86000
C182        C  0.78776292  0.63177138  0.01567278    -0.54200
C183        C  0.76311584  0.64825451  0.01953897     0.09000
C184        C  0.74040074  0.64606548  0.99389637     0.19900
C185        C  0.75867719  0.59578199  0.98856302    -0.54900
C186        C  0.73372809  0.61269709  0.99169758     0.09100
C187        C  0.78247446  0.63639079  0.96190900    -0.54500
C188        C  0.75780974  0.65326202  0.96530853     0.09600
H189        H  0.80502485  0.63000605  0.03250480     0.14200
H190        H  0.72035147  0.65984114  0.99684828    -0.00100
H191        H  0.75711429  0.57194076  0.98906655     0.14500
H192        H  0.79612989  0.63745106  0.94208189     0.14200
C193        C  0.52915889  0.74069776  0.36033968     0.86000
C194        C  0.52090669  0.71288601  0.37824556    -0.54200
C195        C  0.49667955  0.71555635  0.39588190     0.09000
C196        C  0.48143630  0.74595081  0.39306583     0.19900
C197        C  0.50017064  0.74681261  0.34239543    -0.54900
C198        C  0.47523752  0.75014664  0.35964871     0.09100
C199        C  0.53054390  0.76622925  0.38244358    -0.54500
C200        C  0.50587985  0.76926327  0.39955870     0.09600
H201        H  0.53266038  0.69212832  0.37645558     0.14200
H202        H  0.46152835  0.74807413  0.40733561    -0.00100
H203        H  0.49880179  0.74739388  0.31850025     0.14500
H204        H  0.54872528  0.78233116  0.38253293     0.14200
C205        C  0.14016271  0.96606800  0.75894252     0.86000
C206        C  0.11803907  0.96748174  0.73302648    -0.54200
C207        C  0.10372894  0.99366343  0.72990918     0.09000
C208        C  0.11105921  0.01597980  0.75473179     0.19900
C209        C  0.16029514  0.99386865  0.75517314    -0.54900
C210        C  0.14518845  0.02021539  0.75357790     0.09100
C211        C  0.12058100  0.97285987  0.78585595    -0.54500
C212        C  0.10553797  0.99888395  0.78410493     0.09600
H213        H  0.11519057  0.94989094  0.71702180     0.14200
H214        H  0.09819885  0.03671119  0.75276176    -0.00100
H215        H  0.18423115  0.99238069  0.75352195     0.14500
H216        H  0.11796282  0.95830395  0.80492875     0.14200
C217        C  0.75850832  0.15611785  0.96227560     0.86000
C218        C  0.73047971  0.13655998  0.95977843    -0.54200
C219        C  0.72476895  0.11871272  0.98361184     0.09000
C220        C  0.74852699  0.12129144  0.00843051     0.19900
C221        C  0.75385833  0.17273770  0.99181127    -0.54900
C222        C  0.74860710  0.15460327  0.01596746     0.09100
C223        C  0.78364167  0.13467479  0.96953739    -0.54500
C224        C  0.77892789  0.11650211  0.99334267     0.09600
H225        H  0.71546246  0.13767154  0.94086951     0.14200
H226        H  0.74489315  0.10609331  0.02750546    -0.00100
H227        H  0.75443151  0.19629623  0.99480093     0.14500
H228        H  0.80421283  0.13439012  0.95695296     0.14200
C229        C  0.35822673  0.52530565  0.74389191     0.86000
C230        C  0.37677534  0.51528429  0.71776829    -0.54200
C231        C  0.39452985  0.49175062  0.72349013     0.09000
C232        C  0.39191555  0.47952324  0.75565076     0.19900
C233        C  0.34079995  0.49657599  0.75309814    -0.54900
C234        C  0.35845559  0.47240837  0.75918022     0.09100
C235        C  0.37994796  0.52993618  0.76952908    -0.54500
C236        C  0.39704504  0.50630212  0.77655623     0.09600
H237        H  0.37465158  0.52487089  0.69568939     0.14200
H238        H  0.40679563  0.46048024  0.75979472    -0.00100
H239        H  0.31681924  0.49474187  0.75443285     0.14500
H240        H  0.37949770  0.54957677  0.78327689     0.14200
C241        C  0.71939278  0.39179550  0.48265370     0.86000
C242        C  0.72253673  0.37004108  0.50837639    -0.54200
C243        C  0.74885884  0.35579878  0.50977933     0.09000
C244        C  0.77092123  0.36535950  0.48519410     0.19900
C245        C  0.74642343  0.41331618  0.48700201    -0.54900
C246        C  0.77350732  0.39936166  0.48807200     0.09100
C247        C  0.72728250  0.37491924  0.45483805    -0.54500
C248        C  0.75408839  0.36130746  0.45557683     0.09600
H249        H  0.70546344  0.36696471  0.52517468     0.14200
H250        H  0.79228790  0.35350479  0.48694887    -0.00100
H251        H  0.74497631  0.43709352  0.48943266     0.14500
H252        H  0.71397379  0.37635710  0.43471603     0.14200
C253        C  0.60469434  0.51349223  0.27977828     0.86000
C254        C  0.62657761  0.53895755  0.27262160    -0.54200
C255        C  0.64562092  0.53379134  0.25003652     0.09000
C256        C  0.64075560  0.50325912  0.23548506     0.19900
C257        C  0.58880279  0.50883197  0.24962841    -0.54900
C258        C  0.60757274  0.50290819  0.22644322     0.09100
C259        C  0.62433480  0.48622893  0.28411060    -0.54500
C260        C  0.64246493  0.48014015  0.26094421     0.09600
H261        H  0.62585399  0.56078599  0.28230269     0.14200
H262        H  0.65625772  0.49921909  0.21693506    -0.00100
H263        H  0.56511517  0.51140219  0.24640141     0.14500
H264        H  0.62306819  0.47212720  0.30372876     0.14200
C265        C  0.27674609  0.60936808  0.50681011     0.86000
C266        C  0.26942096  0.63011451  0.53219866    -0.54200
C267        C  0.24492498  0.64709504  0.52784896     0.09000
C268        C  0.22906515  0.64131614  0.49802795     0.19900
C269        C  0.24770533  0.59083716  0.50282111    -0.54900
C270        C  0.22276108  0.60764813  0.49857102     0.09100
C271        C  0.27776534  0.62870274  0.47871726    -0.54500
C272        C  0.25334764  0.64563897  0.47413716     0.09600
H273        H  0.28227085  0.63059188  0.55264579     0.14200
H274        H  0.20896370  0.65495297  0.49433488    -0.00100
H275        H  0.24633987  0.56688919  0.50264632     0.14500
H276        H  0.29630605  0.62867569  0.46332864     0.14200
C277        C  0.99996763  0.72686576  0.10822810     0.86000
C278        C  0.97202577  0.73371305  0.12577318    -0.54200
C279        C  0.97307187  0.75905916  0.14194586     0.09000
C280        C  0.00289189  0.77629431  0.13836656     0.19900
C281        C  0.00442995  0.75527432  0.08864635    -0.54900
C282        C  0.00570873  0.78122368  0.10459857     0.09100
C283        C  0.02592400  0.72866105  0.12997120    -0.54500
C284        C  0.02769444  0.75400382  0.14578444     0.09600
H285        H  0.95218238  0.71975181  0.12457173     0.14200
H286        H  0.00451100  0.79684168  0.15154324    -0.00100
H287        H  0.00699168  0.75531213  0.06485801     0.14500
H288        H  0.04325163  0.71208026  0.13096308     0.14200
O289        O  0.21718915  0.73085592  0.28620847    -0.88800
C290        C  0.30619109  0.72633997  0.27169134     0.87200
Mg291      Mg  0.18469307  0.72921804  0.25192770     1.58100
O292        O  0.28119702  0.79693292  0.28893290    -0.88500
O293        O  0.23042766  0.76109744  0.32183709    -0.75900
C294        C  0.23830859  0.81983880  0.14721273     0.92300
O295        O  0.25168858  0.69617722  0.23549487    -0.75700
O296        O  0.22027121  0.79832558  0.15136997    -0.83200
Mg297      Mg  0.25067196  0.69748106  0.28621975     1.58000
C298        C  0.30653381  0.87094195  0.24346163     0.92200
O299        O  0.24934858  0.69408418  0.33683671    -0.81400
H300        H  0.25949118  0.82424463  0.31567049    -0.06800
C301        C  0.29095731  0.77914000  0.20141852     0.87200
O302        O  0.18259432  0.78025766  0.25121448    -0.75900
O303        O  0.28379842  0.73133901  0.28661824    -0.88700
O304        O  0.31722653  0.84915166  0.25812580    -0.81500
C305        C  0.35562839  0.77805446  0.31606473     0.92300
C306        C  0.26204993  0.70437357  0.35980193     0.92200
Mg307      Mg  0.25233808  0.82952591  0.22089765     1.58000
O308        O  0.25334183  0.83138619  0.16844526    -0.81400
O309        O  0.25091491  0.83114392  0.27196869    -0.75700
O310        O  0.33279216  0.76397289  0.32564946    -0.81500
O311        O  0.21746540  0.66023000  0.28417436    -0.83200
O312        O  0.16760351  0.76355331  0.18551840    -0.81600
C313        C  0.26405724  0.81775508  0.29318052     0.86600
O314        O  0.21836511  0.79604004  0.22174981    -0.88700
O315        O  0.28524738  0.79565467  0.22237483    -0.88800
O316        O  0.27068872  0.76521260  0.18721509    -0.75900
Mg317      Mg  0.28149929  0.76260822  0.32183355     1.58000
O318        O  0.35329344  0.79670462  0.29466513    -0.83200
H319        H  0.18764738  0.74931329  0.31308596    -0.07000
O320        O  0.21999550  0.72974571  0.22031130    -0.88500
H321        H  0.24090824  0.70310107  0.19233118    -0.06800
H322        H  0.18980959  0.82362350  0.24069080    -0.07000
C323        C  0.23718763  0.70924606  0.21508058     0.86600
C324        C  0.21077183  0.74674760  0.30738009     0.87200
C325        C  0.19660004  0.80095807  0.23762045     0.87200
H326        H  0.31392288  0.77590130  0.19544714    -0.06900
O327        O  0.32050133  0.74694890  0.25835162    -0.76000
Mg328      Mg  0.21921968  0.76390599  0.18771831     1.58000
H329        H  0.31319768  0.70367771  0.26912272    -0.07000
C330        C  0.19545676  0.65611485  0.26698232     0.92200
O331        O  0.14832487  0.73037456  0.21686278    -0.83200
C332        C  0.14520017  0.74935076  0.19597407     0.92300
O333        O  0.27930836  0.72696877  0.35802850    -0.83200
Mg334      Mg  0.31728555  0.79769779  0.25805101     1.58200
O335        O  0.18322351  0.67754459  0.25290871    -0.81500
O336        O  0.28668631  0.86682544  0.22358694    -0.83200
C337        C  0.25110565  0.85824728  0.96995879     0.86000
C338        C  0.27830251  0.87776135  0.97556857    -0.54200
C339        C  0.27653405  0.89611621  0.99920765     0.09000
C340        C  0.24646901  0.89281283  0.01603621     0.19900
C341        C  0.24717955  0.84116957  0.99997306    -0.54900
C342        C  0.24448708  0.85942778  0.02421093     0.09100
C343        C  0.22440469  0.87870863  0.96906122    -0.54500
C344        C  0.22137849  0.89679319  0.99263076     0.09600
H345        H  0.29843882  0.87587857  0.96252620     0.14200
H346        H  0.24467016  0.90780354  0.03513033    -0.00100
H347        H  0.24652839  0.81726076  0.00233743     0.14500
H348        H  0.20751050  0.87720095  0.95180855     0.14200
C349        C  0.47085017  0.25052165  0.64836138     0.86000
C350        C  0.46619880  0.22150770  0.63152629    -0.54200
C351        C  0.48834500  0.21463158  0.61251790     0.09000
C352        C  0.51309600  0.23877435  0.61034187     0.19900
C353        C  0.50235937  0.24815424  0.66225613    -0.54900
C354        C  0.52475229  0.24160407  0.64247378     0.09100
C355        C  0.47483670  0.27375269  0.62353808    -0.54500
C356        C  0.49697183  0.26820545  0.60410385     0.09600
H357        H  0.44759064  0.20643852  0.63558144     0.14200
H358        H  0.52997899  0.23461282  0.59334949    -0.00100
H359        H  0.50632972  0.25110997  0.68576617     0.14500
H360        H  0.46204805  0.29369056  0.62091308     0.14200
O361        O  0.24384285  0.29647194  0.78820755    -0.88800
C362        C  0.31929434  0.25090207  0.77643944     0.87200
Mg363      Mg  0.20677151  0.27843301  0.81218091     1.58100
O364        O  0.27429133  0.25675682  0.71365613    -0.88500
O365        O  0.25292072  0.31499172  0.74398248    -0.75900
C366        C  0.18679520  0.14271065  0.75654531     0.92300
O367        O  0.27355686  0.24791647  0.82960290    -0.75700
O368        O  0.18160994  0.15681490  0.78027045    -0.83200
Mg369      Mg  0.28650856  0.29327029  0.80882307     1.58000
C370        C  0.25578581  0.18810207  0.66055493     0.92200
O371        O  0.30150693  0.33991741  0.79134697    -0.81400
H372        H  0.25305231  0.28227200  0.68411232    -0.06800
C373        C  0.26422417  0.17962751  0.76048201     0.87200
O374        O  0.18365327  0.26637505  0.76827519    -0.75900
O375        O  0.30266117  0.27194239  0.77096872    -0.88700
O376        O  0.27795267  0.20171327  0.67192553    -0.81500
C377        C  0.35369458  0.25655125  0.70031467     0.92300
C378        C  0.31438218  0.35123452  0.76864243     0.92200
Mg379      Mg  0.21633969  0.20103379  0.71810426     1.58000
O380        O  0.20057942  0.15461529  0.73469765    -0.81400
O381        O  0.22934880  0.24602282  0.69750463    -0.75700
O382        O  0.34237469  0.27846474  0.71352477    -0.81500
O383        O  0.27087614  0.31390573  0.85042255    -0.83200
O384        O  0.15851464  0.21693030  0.81344737    -0.81600
C385        C  0.25262173  0.26230252  0.69761513     0.86600
O386        O  0.19978429  0.22226848  0.75646378    -0.88700
O387        O  0.25869494  0.19717095  0.73995575    -0.88800
O388        O  0.24822183  0.17792352  0.78362453    -0.75900
Mg389      Mg  0.29709631  0.29470383  0.72952730     1.58000
O390        O  0.33885665  0.23286161  0.69537274    -0.83200
H391        H  0.21779840  0.32683038  0.76910559    -0.07000
O392        O  0.22823900  0.23644576  0.81462955    -0.88500
H393        H  0.25095466  0.21095108  0.84306862    -0.06800
H394        H  0.16892603  0.24345196  0.73253820    -0.07000
C395        C  0.25060413  0.23105796  0.82980910     0.86600
C396        C  0.23753257  0.31352832  0.76752047     0.87200
C397        C  0.18332799  0.24366380  0.75179258     0.87200
H398        H  0.28376494  0.16600258  0.75909399    -0.06900
O399        O  0.31893040  0.22750946  0.76103940    -0.76000
Mg400      Mg  0.20420059  0.19884804  0.79780857     1.58000
H401        H  0.33356271  0.25190852  0.79573273    -0.07000
C402        C  0.24972972  0.30610630  0.86750219     0.92200
O403        O  0.16495119  0.26103383  0.83476114    -0.83200
C404        C  0.14850810  0.23900161  0.82768113     0.92300
O405        O  0.31919149  0.33645026  0.74541932    -0.83200
Mg406      Mg  0.29662812  0.21514799  0.71718752     1.58200
O407        O  0.22720716  0.29160610  0.85778005    -0.81500
O408        O  0.23297594  0.18089918  0.67578234    -0.83200
C409        C  0.97030577  0.26509105  0.85464385     0.86000
C410        C  0.97905839  0.28974061  0.87586191    -0.54200
C411        C  0.00211313  0.28349445  0.89436688     0.09000
C412        C  0.01569045  0.25265340  0.88904744     0.19900
C413        C  0.99969496  0.25917757  0.83769549    -0.54900
C414        C  0.02368080  0.25325879  0.85580063     0.09100
C415        C  0.96611046  0.23706804  0.87356719    -0.54500
C416        C  0.98967758  0.22995622  0.89104607     0.09600
H417        H  0.96850253  0.31127861  0.87547129     0.14200
H418        H  0.03451636  0.24738053  0.90409135    -0.00100
H419        H  0.00162530  0.25865152  0.81393102     0.14500
H420        H  0.94684682  0.22244636  0.87131184     0.14200
O421        O  0.75134563  0.21354892  0.21448468    -0.88800
C422        C  0.82959328  0.25954963  0.22033229     0.87200
Mg423      Mg  0.71238619  0.23044996  0.19358211     1.58100
O424        O  0.78894532  0.25524739  0.28622583    -0.88500
O425        O  0.76446203  0.19589591  0.25795341    -0.75900
C426        C  0.70024884  0.36735295  0.24581116     0.92300
O427        O  0.77866771  0.26115023  0.16947265    -0.75700
O428        O  0.69235680  0.35163847  0.22384644    -0.83200
Mg429      Mg  0.79210878  0.21657914  0.19060319     1.58000
C430        C  0.77705540  0.32828442  0.33687075     0.92200
O431        O  0.80657625  0.17053625  0.20800051    -0.81400
H432        H  0.76913334  0.23138899  0.31829712    -0.06800
C433        C  0.77762796  0.33083229  0.23663905     0.87200
O434        O  0.69434825  0.24427863  0.23894617    -0.75900
O435        O  0.81244955  0.23891417  0.22707175    -0.88700
O436        O  0.79746319  0.31222931  0.32637428    -0.81500
C437        C  0.86778144  0.25551811  0.29849302     0.92300
C438        C  0.82222279  0.15982628  0.22906602     0.92200
Mg439      Mg  0.73325838  0.31202368  0.28318416     1.58000
O440        O  0.71789640  0.35783204  0.26580764    -0.81400
O441        O  0.74621709  0.26781235  0.30533376    -0.75700
O442        O  0.85657201  0.23309776  0.28526679    -0.81500
O443        O  0.77226628  0.19468228  0.15054935    -0.83200
O444        O  0.66634987  0.29260277  0.19411857    -0.81600
C445        C  0.76847424  0.25078137  0.30402104     0.86600
O446        O  0.71281291  0.28860934  0.24759961    -0.88700
O447        O  0.77349818  0.31422847  0.25830922    -0.88800
O448        O  0.75936320  0.33187117  0.21503934    -0.75900
Mg449      Mg  0.80992791  0.21679985  0.26935637     1.58000
O450        O  0.85372735  0.27955391  0.30136114    -0.83200
H451        H  0.72694686  0.18305553  0.23621833    -0.07000
O452        O  0.73481895  0.27241538  0.18731981    -0.88500
H453        H  0.75525345  0.29718722  0.15633874    -0.06800
H454        H  0.68410995  0.26838418  0.27510046    -0.07000
C455        C  0.75584743  0.27754629  0.17027363     0.86600
C456        C  0.74686509  0.19675376  0.23588238     0.87200
C457        C  0.69637878  0.26747714  0.25460144     0.87200
H458        H  0.79768185  0.34434679  0.23571924    -0.06900
O459        O  0.83141819  0.28301595  0.23556087    -0.76000
Mg460      Mg  0.71351933  0.31046212  0.20534356     1.58000
H461        H  0.84253918  0.25804557  0.20027375    -0.07000
C462        C  0.74863209  0.19977474  0.13594952     0.92200
O463        O  0.66924810  0.24759189  0.17442700    -0.83200
C464        C  0.65436538  0.27030806  0.18145516     0.92300
O465        O  0.83046050  0.17519042  0.25121097    -0.83200
Mg466      Mg  0.81207781  0.29684336  0.28016215     1.58200
O467        O  0.72683514  0.21380643  0.14698254    -0.81500
O468        O  0.75408791  0.33514180  0.32196915    -0.83200
C469        C  0.88502123  0.00961234  0.28591218     0.86000
C470        C  0.86055030  0.98605775  0.28169858    -0.54200
C471        C  0.84618412  0.98694127  0.25523637     0.09000
C472        C  0.85845323  0.01123836  0.23418524     0.19900
C473        C  0.90601436  0.00353274  0.25931280    -0.54900
C474        C  0.89192847  0.00470974  0.23211937     0.09100
C475        C  0.87049935  0.03917009  0.27841015    -0.54500
C476        C  0.85744586  0.04053553  0.25126045     0.09600
H477        H  0.85798059  0.96707958  0.29655089     0.14200
H478        H  0.84682872  0.01210787  0.21243776    -0.00100
H479        H  0.92944824  0.99915920  0.26140662     0.14500
H480        H  0.87232152  0.05837366  0.29267242     0.14200
C481        C  0.03802828  0.26536593  0.36167170     0.86000
C482        C  0.03572920  0.23667123  0.37983766    -0.54200
C483        C  0.00917794  0.23217796  0.39353103     0.09000
C484        C  0.98650998  0.25707021  0.38769483     0.19900
C485        C  0.01126153  0.26262074  0.34003075    -0.54900
C486        C  0.98425425  0.25902363  0.35359021     0.09100
C487        C  0.02915157  0.29029509  0.38240321    -0.54500
C488        C  0.00255140  0.28624384  0.39638351     0.09600
H489        H  0.05303123  0.22006646  0.38014217     0.14200
H490        H  0.96500746  0.25317093  0.39910890    -0.00100
H491        H  0.01288755  0.26163310  0.31628078     0.14500
H492        H  0.04248013  0.31037575  0.38493094     0.14200
O493        O  0.29424232  0.22579542  0.22917380    -0.88800
C494        C  0.30070002  0.24430307  0.31628682     0.87200
Mg495      Mg  0.29650303  0.25785939  0.19480160     1.58100
O496        O  0.22862718  0.22785141  0.29077024    -0.88500
O497        O  0.26327581  0.19068320  0.24335388    -0.75900
C498        C  0.20801325  0.36716982  0.23727541     0.92300
O499        O  0.33165676  0.27767235  0.25955111    -0.75700
O500        O  0.23058606  0.36361187  0.22073382    -0.83200
Mg501      Mg  0.32903283  0.22669989  0.26167806     1.58000
C502        C  0.15784043  0.27926260  0.31252752     0.92200
O503        O  0.32949864  0.17568048  0.26414516    -0.81400
H504        H  0.19974569  0.20023412  0.27116426    -0.06800
C505        C  0.24932939  0.31647055  0.29485673     0.87200
O506        O  0.24575205  0.25883160  0.19109553    -0.75900
O507        O  0.29531754  0.22799619  0.29502457    -0.88700
O508        O  0.17829837  0.26401031  0.32481452    -0.81500
C509        C  0.24224559  0.20256470  0.36606871     0.92300
C510        C  0.31754833  0.15360449  0.27777979     0.92200
Mg511      Mg  0.19889700  0.29430815  0.25651196     1.58000
O512        O  0.19742281  0.34550510  0.25255892    -0.81400
O513        O  0.19495991  0.24337814  0.25906066    -0.75700
O514        O  0.25710675  0.19129874  0.34504215    -0.81500
O515        O  0.36663995  0.22682826  0.22706113    -0.83200
O516        O  0.26833727  0.32606967  0.17209163    -0.81600
C517        C  0.20738776  0.22285315  0.27395315     0.86600
O518        O  0.23177516  0.29171118  0.22334263    -0.88700
O519        O  0.23317013  0.29465930  0.28991870    -0.88800
O520        O  0.26316086  0.33012298  0.27418054    -0.75900
Mg521      Mg  0.26124322  0.19383882  0.29388037     1.58000
O522        O  0.22738318  0.22619144  0.36185346    -0.83200
H523        H  0.27614568  0.19705255  0.20073724    -0.07000
O524        O  0.29786714  0.29240165  0.22740481    -0.88500
H525        H  0.32584639  0.32065718  0.24738474    -0.06800
H526        H  0.20301983  0.27172498  0.19594581    -0.07000
C527        C  0.31883785  0.29785901  0.24447480     0.86600
C528        C  0.27826814  0.20409460  0.22346092     0.87200
C529        C  0.22589840  0.27447599  0.20296964     0.87200
H530        H  0.25220972  0.32377636  0.31739205    -0.06900
O531        O  0.28047217  0.25909488  0.32872457    -0.76000
Mg532      Mg  0.26503100  0.32622339  0.22326456     1.58000
H533        H  0.32341334  0.24681247  0.32385239    -0.07000
C534        C  0.36902900  0.24249289  0.20346633     0.92200
O535        O  0.29769215  0.28980345  0.15692075    -0.83200
C536        C  0.28241742  0.31269971  0.15176395     0.92300
O537        O  0.29511697  0.15672252  0.29458186    -0.83200
Mg538      Mg  0.22958833  0.26111000  0.32442952     1.58200
O539        O  0.34690590  0.25621138  0.19275745    -0.81500
O540        O  0.16285590  0.29598328  0.29029182    -0.83200
C541        C  0.22989613  0.39654859  0.01033913     0.86000
C542        C  0.23609860  0.37784435  0.03784794    -0.54200
C543        C  0.26121772  0.36181720  0.03670114     0.09000
C544        C  0.27795868  0.36478866  0.00717506     0.19900
C545        C  0.25903144  0.41533419  0.00645249    -0.54900
C546        C  0.28435046  0.39841211  0.00437053     0.09100
C547        C  0.23046452  0.37567432  0.98408008    -0.54500
C548        C  0.25497304  0.35843280  0.98246808     0.09600
H549        H  0.22250131  0.37871133  0.05769860     0.14200
H550        H  0.29775797  0.35048361  0.00641335    -0.00100
H551        H  0.26002244  0.43924474  0.00676596     0.14500
H552        H  0.21262800  0.37480676  0.96776197     0.14200
C553        C  0.40134351  0.00787435  0.22139603     0.86000
C554        C  0.38555739  0.03740211  0.22491734    -0.54200
C555        C  0.36969423  0.04000573  0.25028268     0.09000
C556        C  0.36895380  0.01133888  0.26937699     0.19900
C557        C  0.41902760  0.00297271  0.25066770    -0.54900
C558        C  0.40195483  0.00520935  0.27565665     0.09100
C559        C  0.37672323  0.98428375  0.22395144    -0.54500
C560        C  0.35934638  0.98617317  0.24831573     0.09600
H561        H  0.38776874  0.05545333  0.20888086     0.14200
H562        H  0.35526568  0.01272751  0.28972809    -0.00100
H563        H  0.44206545  0.99669959  0.25216362     0.14500
H564        H  0.37459028  0.96577408  0.20883517     0.14200
O565        O  0.98503894  0.98950345  0.56040524    -0.88800
C566        C  0.05910466  0.99859274  0.50958413     0.87200
Mg567      Mg  0.94608377  0.96538018  0.54622025     1.58100
O568        O  0.01780798  0.06353810  0.51432852    -0.88500
O569        O  0.99781910  0.03435623  0.57492669    -0.75900
C570        C  0.92332777  0.01626633  0.41001244     0.92300
O571        O  0.01128538  0.94568743  0.51220280    -0.75700
O572        O  0.91673466  0.99454156  0.42700002    -0.83200
Mg573      Mg  0.02676901  0.96771861  0.55536161     1.58000
C574        C  0.99731773  0.11296066  0.44048799     0.92200
O575        O  0.04417428  0.98604536  0.60000511    -0.81400
H576        H  0.99917223  0.09494860  0.53872190    -0.06800
C577        C  0.00173913  0.01286788  0.44198581     0.87200
O578        O  0.92385268  0.00945708  0.53308222    -0.75900
O579        O  0.04321663  0.00478628  0.53088802    -0.88700
O580        O  0.01984334  0.10292776  0.45453091    -0.81500
C581        C  0.09763019  0.07356129  0.50729482     0.92300
C582        C  0.05967078  0.00777207  0.60977153     0.92200
Mg583      Mg  0.95684741  0.05716155  0.46274297     1.58000
O584        O  0.93944719  0.03793178  0.41874877    -0.81400
O585        O  0.97298578  0.08024813  0.50513196    -0.75700
O586        O  0.08736761  0.06060148  0.53055160    -0.81500
O587        O  0.01093068  0.92648067  0.57893595    -0.83200
O588        O  0.89574912  0.96248980  0.48772991    -0.81600
C589        C  0.99710039  0.08039694  0.51997009     0.86600
O590        O  0.93991789  0.02015416  0.48832275    -0.88700
O591        O  0.99803147  0.03452562  0.45809377    -0.88800
O592        O  0.98455440  0.99026599  0.44296440    -0.75900
Mg593      Mg  0.04192320  0.04690078  0.55167811     1.58000
O594        O  0.08089029  0.07952510  0.48527298    -0.83200
H595        H  0.96155975  0.01178039  0.59017403    -0.07000
O596        O  0.96594834  0.96130120  0.50361576    -0.88500
H597        H  0.98557804  0.93144595  0.47805028    -0.06800
H598        H  0.91048764  0.04532979  0.50919118    -0.07000
C599        C  0.98718671  0.94534216  0.49735432     0.86600
C600        C  0.98080752  0.01155820  0.57591939     0.87200
C601        C  0.92404586  0.02573114  0.50986271     0.87200
H602        H  0.02061064  0.01282655  0.42720724    -0.06900
O603        O  0.05890381  0.01382737  0.48575243    -0.76000
Mg604      Mg  0.94107171  0.97787115  0.46722214     1.58000
H605        H  0.07274253  0.97904623  0.51089756    -0.07000
C606        C  0.98839263  0.91007334  0.57374525     0.92200
O607        O  0.90304227  0.94187105  0.53207861    -0.83200
C608        C  0.88622288  0.94739284  0.50997591     0.92300
O609        O  0.06558785  0.03032224  0.59348457    -0.83200
Mg610      Mg  0.03744056  0.05765785  0.47159912     1.58200
O611        O  0.96540384  0.91999154  0.56045619    -0.81500
O612        O  0.97364391  0.09759104  0.43723040    -0.83200
O613        O  0.02388465  0.95886853  0.99850518    -0.88800
C614        C  0.01353843  0.00712829  0.07313483     0.87200
Mg615      Mg  0.04576790  0.97576766  0.95967994     1.58100
O616        O  0.94865182  0.99839620  0.03115468    -0.88500
O617        O  0.98004770  0.94050842  0.01080692    -0.75900
C618        C  0.98955125  0.11070647  0.94003615     0.92300
O619        O  0.06658868  0.00880040  0.02500245    -0.75700
O620        O  0.01181999  0.09507392  0.93333402    -0.83200
Mg621      Mg  0.04665987  0.96378261  0.03988444     1.58000
C622        C  0.89334662  0.06648340  0.01119453     0.92200
O623        O  0.03017363  0.91739768  0.05586724    -0.81400
H624        H  0.91894413  0.97214718  0.01082830    -0.06800
C625        C  0.99524163  0.07537445  0.01778656     0.87200
O626        O  0.00034813  0.98724752  0.93911442    -0.75900
O627        O  0.00846198  0.98525002  0.05747696    -0.88700
O628        O  0.90436208  0.05305682  0.03367189    -0.81500
C629        C  0.93629376  0.00153371  0.11063643     0.92300
C630        C  0.00860124  0.90530285  0.06999683     0.92200
Mg631      Mg  0.95127020  0.05364871  0.97206667     1.58000
O632        O  0.96820622  0.10046798  0.95592474    -0.81400
O633        O  0.93111613  0.00852833  0.98667099    -0.75700
O634        O  0.95134800  0.97945460  0.10156446    -0.81500
O635        O  0.08845901  0.94278966  0.02250443    -0.83200
O636        O  0.04426504  0.03659395  0.91059650    -0.81600
C637        C  0.93219961  0.99231829  0.00992373     0.86600
O638        O  0.98904255  0.03155951  0.95485990    -0.88700
O639        O  0.97394064  0.05826931  0.01333589    -0.88800
O640        O  0.01779801  0.07645623  0.00079571    -0.75900
Mg641      Mg  0.96685107  0.96147224  0.05507310     1.58000
O642        O  0.93042826  0.02307390  0.09331923    -0.83200
H643        H  0.00299227  0.92789299  0.97455061    -0.07000
O644        O  0.04934929  0.01821771  0.98024067    -0.88500
H645        H  0.07891992  0.04476562  0.00033327    -0.06800
H646        H  0.96343211  0.00941664  0.92605198    -0.07000
C647        C  0.06570423  0.02458250  0.00145805     0.86600
C648        C  0.00267618  0.94168990  0.99396212     0.87200
C649        C  0.98358056  0.00974517  0.93925751     0.87200
H650        H  0.99502106  0.08926575  0.03713008    -0.06900
O651        O  0.99666503  0.02957090  0.07298357    -0.76000
Mg652      Mg  0.03054111  0.05485897  0.95654228     1.58000
H653        H  0.03342939  0.00756669  0.08663289    -0.07000
C654        C  0.10356496  0.94755710  0.99913397     0.92200
O655        O  0.06577449  0.99261741  0.91646749    -0.83200
C656        C  0.05809554  0.01449873  0.90018343     0.92300
O657        O  0.98536381  0.91961598  0.07683272    -0.83200
Mg658      Mg  0.95152929  0.04066722  0.05159394     1.58200
O659        O  0.09299215  0.96156215  0.97673143    -0.81500
O660        O  0.90921020  0.07417153  0.98906164    -0.83200
O661        O  0.46706692  0.04295480  0.49676139    -0.88800
C662        C  0.47136939  0.99307884  0.57183889     0.87200
Mg663      Mg  0.44547708  0.02676045  0.45790081     1.58100
O664        O  0.53801592  0.99867183  0.53237611    -0.88500
O665        O  0.51102761  0.05918905  0.51078521    -0.75900
C666        C  0.49455071  0.88888035  0.44337142     0.92300
O667        O  0.41942815  0.99641407  0.52227433    -0.75700
O668        O  0.47281227  0.90518815  0.43602423    -0.83200
Mg669      Mg  0.44245699  0.03987662  0.53688979     1.58000
C670        C  0.59078929  0.92733176  0.51718658     0.92200
O671        O  0.46213407  0.08506812  0.55286683    -0.81400
H672        H  0.57033330  0.02342612  0.51383746    -0.06800
C673        C  0.48860264  0.92437153  0.51951742     0.87200
O674        O  0.49066458  0.01292411  0.43916592    -0.75900
O675        O  0.47819523  0.01499081  0.55638328    -0.88700
O676        O  0.57975784  0.94236769  0.53813775    -0.81500
C677        C  0.54822619  0.99410936  0.61197309     0.92300
C678        C  0.48345392  0.09416881  0.56934312     0.92200
Mg679      Mg  0.53536144  0.94396133  0.47502521     1.58000
O680        O  0.51616979  0.89913696  0.45878563    -0.81400
O681        O  0.55772874  0.98774273  0.48952658    -0.75700
O682        O  0.53424619  0.01653108  0.60170628    -0.81500
O683        O  0.40326890  0.06430194  0.51665042    -0.83200
O684        O  0.44525414  0.96620010  0.41050508    -0.81600
C685        C  0.55606190  0.00399190  0.51230467     0.86600
O686        O  0.49926776  0.96807767  0.45625347    -0.88700
O687        O  0.51085218  0.94030966  0.51521601    -0.88800
O688        O  0.46620432  0.92475807  0.50219928    -0.75900
Mg689      Mg  0.52120359  0.03600961  0.55539543     1.58000
O690        O  0.55357152  0.97207038  0.59578336    -0.83200
H691        H  0.48987465  0.07363766  0.47362586    -0.07000
O692        O  0.43921911  0.98495243  0.47956457    -0.88500
H693        H  0.40618333  0.96093790  0.49790296    -0.06800
H694        H  0.52669116  0.98892994  0.42793096    -0.07000
C695        C  0.42089417  0.98009148  0.49951007     0.86600
C696        C  0.48903052  0.05934425  0.49298530     0.87200
C697        C  0.50624953  0.98961001  0.44040220     0.87200
H698        H  0.48777542  0.91043132  0.53914871    -0.06900
O699        O  0.48725892  0.96989803  0.57284195    -0.76000
Mg700      Mg  0.45626492  0.94709283  0.45726583     1.58000
H701        H  0.45086760  0.99334525  0.58426842    -0.07000
C702        C  0.38851171  0.05869548  0.49319059     0.92200
O703        O  0.42486165  0.01043691  0.41565968    -0.83200
C704        C  0.43210241  0.98872107  0.39956727     0.92300
O705        O  0.50433334  0.07715846  0.57768668    -0.83200
Mg706      Mg  0.53267384  0.95654179  0.55371535     1.58200
O707        O  0.39895151  0.04300082  0.47243524    -0.81500
O708        O  0.57557074  0.92025986  0.49441478    -0.83200
C709        C  0.25005674  0.14626215  0.53943516     0.86000
C710        C  0.27704719  0.12703212  0.53259619    -0.54200
C711        C  0.27533982  0.11242821  0.50651093     0.09000
C712        C  0.24534213  0.11632118  0.49019987     0.19900
C713        C  0.24591154  0.16574006  0.51138072    -0.54900
C714        C  0.24309125  0.15013743  0.48552066     0.09100
C715        C  0.22434595  0.12369630  0.53910591    -0.54500
C716        C  0.22113930  0.10855364  0.51337608     0.09600
H717        H  0.29658965  0.12490987  0.54652573     0.14200
H718        H  0.24328800  0.10329712  0.46955659    -0.00100
H719        H  0.24707105  0.18971419  0.51208749     0.14500
H720        H  0.20841681  0.12136159  0.55701071     0.14200
O721        O  0.47236973  0.03443824  0.02615157    -0.88800
C722        C  0.55978991  0.01594167  0.03676319     0.87200
Mg723      Mg  0.43746403  0.00215105  0.03023832     1.58100
O724        O  0.53702571  0.02871248  0.96365400    -0.88500
O725        O  0.48821511  0.06764267  0.99394911    -0.75900
C726        C  0.48294301  0.88956865  0.94931297     0.92300
O727        O  0.50216869  0.98469427  0.06673530    -0.75700
O728        O  0.46557920  0.89506742  0.97070177    -0.83200
Mg729      Mg  0.50488394  0.03540554  0.06116661     1.58000
C730        C  0.56095601  0.97518519  0.89670976     0.92200
O731        O  0.50837130  0.08623560  0.06022374    -0.81400
H732        H  0.51849772  0.05512324  0.93309370    -0.06800
C733        C  0.53920854  0.94159144  0.98922694     0.87200
O734        O  0.43429512  0.99805781  0.97957044    -0.75900
O735        O  0.53883394  0.03184226  0.02914346    -0.88700
O736        O  0.57214608  0.99018337  0.91782669    -0.81500
C737        C  0.61229143  0.05351942  0.98001580     0.92300
C738        C  0.52328111  0.10729714  0.04814989     0.92200
Mg739      Mg  0.50291937  0.96136756  0.93613814     1.58000
O740        O  0.49923231  0.90995489  0.93762950    -0.81400
O741        O  0.50582031  0.01195195  0.93003304    -0.75700
O742        O  0.59027639  0.06605365  0.99224439    -0.81500
O743        O  0.47057182  0.03798432  0.09715254    -0.83200
O744        O  0.41458264  0.93391534  0.00332259    -0.81600
C745        C  0.52080702  0.03284518  0.94180210     0.86600
O746        O  0.46837512  0.96588114  0.96798018    -0.88700
O747        O  0.53517811  0.96239239  0.97159745    -0.88800
O748        O  0.51779821  0.92911161  0.00312270    -0.75900
Mg749      Mg  0.53911588  0.06436603  0.99398660     1.58000
O750        O  0.60910096  0.02904161  0.96639776    -0.83200
H751        H  0.44479431  0.06194464  0.00493509    -0.07000
O752        O  0.47011067  0.96830124  0.03369146    -0.88500
H753        H  0.48942600  0.94151200  0.06347988    -0.06800
H754        H  0.44084481  0.98338912  0.93775715    -0.07000
C755        C  0.48689994  0.96391588  0.05507528     0.86600
C756        C  0.46747097  0.05506377  0.00860291     0.87200
C757        C  0.44748589  0.98210009  0.96078894     0.87200
H758        H  0.56163872  0.93425415  0.99343679    -0.06900
O759        O  0.57293198  0.99945441  0.01849816    -0.76000
Mg760      Mg  0.46667821  0.93334610  0.00274371     1.58000
H761        H  0.56625886  0.01511724  0.05986170    -0.07000
C762        C  0.44843068  0.02069052  0.10134028     0.92200
O763        O  0.39892843  0.96930704  0.03343425    -0.83200
C764        C  0.39383481  0.94687213  0.01732768     0.92300
O765        O  0.53949211  0.10323525  0.02553759    -0.83200
Mg766      Mg  0.57040816  0.99508984  0.96811917     1.58200
O767        O  0.43701302  0.00589823  0.08030558    -0.81500
O768        O  0.53807308  0.95866518  0.90036570    -0.83200
C769        C  0.51188497  0.22493787  0.10096897     0.86000
C770        C  0.48449862  0.22262261  0.12105489    -0.54200
C771        C  0.48136811  0.24517435  0.14049939     0.09000
C772        C  0.50631430  0.26893878  0.13829108     0.19900
C773        C  0.50892556  0.25588625  0.08590843    -0.54900
C774        C  0.50596686  0.27872177  0.10547388     0.09100
C775        C  0.53834729  0.22943306  0.12195355    -0.54500
C776        C  0.53562207  0.25177170  0.14170731     0.09600
H777        H  0.46817706  0.20472764  0.11935736     0.14200
H778        H  0.50407517  0.28756964  0.15396708    -0.00100
H779        H  0.51002600  0.26082464  0.06260315     0.14500
H780        H  0.55856204  0.21658437  0.12025682     0.14200
O781        O  0.45971521  0.50999891  0.97417137    -0.88800
C782        C  0.51002893  0.43666343  0.98675226     0.87200
Mg783      Mg  0.47621778  0.54765669  0.94960272     1.58100
O784        O  0.50385091  0.48054798  0.04983802    -0.88500
O785        O  0.44402059  0.49936354  0.01911084    -0.75900
C786        C  0.61218483  0.57113046  0.00266050     0.92300
O787        O  0.50773963  0.48191622  0.93135702    -0.75700
O788        O  0.59647525  0.57502553  0.97953586    -0.83200
Mg789      Mg  0.46373015  0.46765561  0.95380239     1.58000
C790        C  0.57378386  0.50256796  0.10222666     0.92200
O791        O  0.41796887  0.45115030  0.97300142    -0.81400
H792        H  0.47808820  0.50030872  0.07949566    -0.06800
C793        C  0.57859621  0.49284825  0.00180701     0.87200
O794        O  0.48885138  0.57078326  0.99316922    -0.75900
O795        O  0.48807721  0.45212282  0.99179185    -0.88700
O796        O  0.56130342  0.47943926  0.09159134    -0.81500
C797        C  0.50818262  0.40151961  0.06515382     0.92300
C798        C  0.40868716  0.43661738  0.99572964     0.92200
Mg799      Mg  0.55681579  0.54052535  0.04378448     1.58000
O800        O  0.60220758  0.55773907  0.02569849    -0.81400
O801        O  0.51289839  0.52569539  0.06540453    -0.75700
O802        O  0.48553600  0.41113414  0.05098370    -0.81500
O803        O  0.44033486  0.48346586  0.91202773    -0.83200
O804        O  0.53693234  0.59653307  0.94778824    -0.81600
C805        C  0.49767363  0.50176557  0.06573731     0.86600
O806        O  0.53341838  0.55523981  0.00523761    -0.88700
O807        O  0.56224594  0.49819636  0.02305465    -0.88800
O808        O  0.57810690  0.50822185  0.97803825    -0.75900
Mg809      Mg  0.46659700  0.45599313  0.03379273     1.58000
O810        O  0.53079500  0.41800041  0.07006712    -0.83200
H811        H  0.42952667  0.53447589  0.99478559    -0.07000
O812        O  0.51826193  0.52669093  0.94722610    -0.88500
H813        H  0.54328078  0.50636913  0.91728020    -0.06800
H814        H  0.51207481  0.58554353  0.02884450    -0.07000
C815        C  0.52379320  0.50536034  0.93120856     0.86600
C816        C  0.44366141  0.51526922  0.99565471     0.87200
C817        C  0.51179609  0.57128833  0.00974787     0.87200
H818        H  0.59290317  0.47379674  0.00306956    -0.06900
O819        O  0.53326122  0.43751680  0.00293644    -0.76000
Mg820      Mg  0.55548587  0.55136366  0.96359754     1.58000
H821        H  0.50979819  0.42269223  0.96748179    -0.07000
C822        C  0.44666190  0.50552918  0.89525310     0.92200
O823        O  0.49302410  0.58922374  0.92573519    -0.83200
C824        C  0.51518001  0.60581033  0.93224033     0.92300
O825        O  0.42553256  0.43204691  0.01792431    -0.83200
Mg826      Mg  0.54639427  0.46008339  0.04669037     1.58200
O827        O  0.46171749  0.52783994  0.90436364    -0.81500
O828        O  0.57888696  0.52574359  0.08661293    -0.83200
O829        O  0.02837474  0.53495611  0.46657167    -0.88800
C830        C  0.03356710  0.44821297  0.49002354     0.87200
Mg831      Mg  0.03039921  0.56949965  0.49871419     1.58100
O832        O  0.96215872  0.47240202  0.47187405    -0.88500
O833        O  0.99745006  0.51900916  0.43239333    -0.75900
C834        C  0.94175822  0.52335480  0.60947275     0.92300
O835        O  0.06514362  0.50556116  0.51948846    -0.75700
O836        O  0.96435795  0.54008198  0.60486216    -0.83200
Mg837      Mg  0.06249190  0.50227938  0.46873102     1.58000
C838        C  0.88869304  0.45060630  0.51992966     0.92200
O839        O  0.06420605  0.49751899  0.41757027    -0.81400
H840        H  0.93413714  0.49165575  0.44323363    -0.06800
C841        C  0.98125939  0.46839786  0.55986973     0.87200
O842        O  0.97930392  0.57139541  0.49974028    -0.75900
O843        O  0.02863357  0.46876047  0.47229933    -0.88700
O844        O  0.91093949  0.43932983  0.50695153    -0.81500
C845        C  0.97749870  0.39622241  0.45244329     0.92300
C846        C  0.05253000  0.48245977  0.39656207     0.92200
Mg847      Mg  0.93016099  0.50584520  0.53705486     1.58000
O848        O  0.92909826  0.50880905  0.58868253    -0.81400
O849        O  0.92769532  0.50334004  0.48601968    -0.75700
O850        O  0.99266301  0.41686269  0.43983211    -0.81500
O851        O  0.09966231  0.53725325  0.46700180    -0.83200
O852        O  0.99886646  0.59101719  0.56524164    -0.81600
C853        C  0.94102433  0.48889030  0.46606714     0.86600
O854        O  0.96396650  0.53910355  0.53344830    -0.88700
O855        O  0.96461548  0.47334667  0.53850774    -0.88800
O856        O  0.99633974  0.48891648  0.57217060    -0.75900
Mg857      Mg  0.99523595  0.46829733  0.43809345     1.58000
O858        O  0.96019446  0.40109258  0.47398021    -0.83200
H859        H  0.00988017  0.56216778  0.43666767    -0.07000
O860        O  0.03065474  0.53654729  0.53319883    -0.88500
H861        H  0.05897968  0.51808629  0.56204500    -0.06800
H862        H  0.93610959  0.56579523  0.51156812    -0.07000
C863        C  0.05194159  0.52037005  0.53919847     0.86600
C864        C  0.01222110  0.53967666  0.44479868     0.87200
C865        C  0.95885906  0.55917986  0.51522138     0.87200
H866        H  0.98382969  0.44580903  0.56763899    -0.06900
O867        O  0.01295694  0.43588295  0.50520641    -0.76000
Mg868      Mg  0.99775557  0.53965688  0.56703821     1.58000
H869        H  0.05623228  0.44114657  0.49337691    -0.07000
C870        C  0.10344045  0.55980027  0.48342749     0.92200
O871        O  0.03010139  0.60800476  0.53084270    -0.83200
C872        C  0.01255550  0.61252757  0.55233091     0.92300
O873        O  0.02935964  0.46639666  0.40069442    -0.83200
Mg874      Mg  0.96188905  0.43923889  0.50627470     1.58200
O875        O  0.08209364  0.57137010  0.49766063    -0.81500
O876        O  0.89219941  0.47184681  0.53797230    -0.83200
O877        O  0.97574043  0.46427696  0.97299923    -0.88800
C878        C  0.06236783  0.48715433  0.96866790     0.87200
Mg879      Mg  0.94256929  0.49719763  0.96954166     1.58100
O880        O  0.03655797  0.46903438  0.03949351    -0.88500
O881        O  0.99002543  0.43000028  0.00453136    -0.75900
C882        C  0.98911737  0.60743548  0.05717080     0.92300
O883        O  0.00743826  0.51577552  0.93420708    -0.75700
O884        O  0.97390394  0.60310076  0.03370395    -0.83200
Mg885      Mg  0.00903415  0.46499769  0.93907733     1.58000
C886        C  0.05810471  0.51495704  0.11312552     0.92200
O887        O  0.01112419  0.41365402  0.94014138    -0.81400
H888        H  0.01594047  0.44044215  0.06694059    -0.06800
C889        C  0.04435193  0.55637770  0.02091665     0.87200
O890        O  0.93874753  0.49958514  0.02017141    -0.75900
O891        O  0.04178772  0.46913560  0.97329073    -0.88700
O892        O  0.06989056  0.50197256  0.09128049    -0.81500
C893        C  0.11272617  0.44864616  0.02451286     0.92300
C894        C  0.02622294  0.39307260  0.95241449     0.92200
Mg895      Mg  0.00388750  0.53440537  0.07041559     1.58000
O896        O  0.00210563  0.58617030  0.07090060    -0.81400
O897        O  0.00473292  0.48338478  0.07309049    -0.75700
O898        O  0.09168257  0.43638177  0.00997000    -0.81500
O899        O  0.97497524  0.46301101  0.90138109    -0.83200
O900        O  0.92363759  0.56679351  0.99631520    -0.81600
C901        C  0.01932346  0.46330831  0.06018337     0.86600
O902        O  0.97178770  0.53225768  0.03564904    -0.88700
O903        O  0.03778952  0.53526920  0.03743497    -0.88800
O904        O  0.02516168  0.56876365  0.00440475    -0.75900
Mg905      Mg  0.04089477  0.43529772  0.00709158     1.58000
O906        O  0.10826916  0.47019321  0.04165803    -0.83200
H907        H  0.94716752  0.43515419  0.99133074    -0.07000
O908        O  0.97724032  0.53052890  0.96891242    -0.88500
H909        H  0.99581612  0.55871994  0.93967826    -0.06800
H910        H  0.94287120  0.51215646  0.06299271    -0.07000
C911        C  0.99323345  0.53599726  0.94724457     0.86600
C912        C  0.96997832  0.44276539  0.98931892     0.87200
C913        C  0.95066448  0.51503321  0.04050185     0.87200
H914        H  0.06732790  0.56358417  0.01949659    -0.06900
O915        O  0.07448275  0.50205303  0.98938822    -0.76000
Mg916      Mg  0.97450512  0.56519605  0.00094617     1.58000
H917        H  0.06967718  0.49102226  0.94613419    -0.07000
C918        C  0.95220652  0.47910899  0.89730747     0.92200
O919        O  0.90645402  0.53098332  0.96707868    -0.83200
C920        C  0.90259944  0.55447981  0.98170102     0.92300
O921        O  0.04377443  0.39793148  0.97400924    -0.83200
Mg922      Mg  0.07074522  0.50250297  0.04031101     1.58200
O923        O  0.94091230  0.49374489  0.91845082    -0.81500
O924        O  0.03703546  0.53333030  0.10907737    -0.83200
C925        C  0.14464576  0.53618645  0.25610130     0.86000
C926        C  0.12688066  0.52948663  0.28415099    -0.54200
C927        C  0.11193202  0.50311957  0.28443928     0.09000
C928        C  0.11516151  0.48562566  0.25528416     0.19900
C929        C  0.16465971  0.50835419  0.25266733    -0.54900
C930        C  0.14915322  0.48171545  0.25233068     0.09100
C931        C  0.12293401  0.53320965  0.23041130    -0.54500
C932        C  0.10706110  0.50748760  0.22998546     0.09600
H933        H  0.12732590  0.54403286  0.30319051     0.14200
H934        H  0.10193953  0.46481388  0.25415069    -0.00100
H935        H  0.18859610  0.50901130  0.25033861     0.14500
H936        H  0.12180353  0.54933949  0.21239709     0.14200
O937        O  0.44436549  0.47885352  0.52733640    -0.88800
C938        C  0.49074736  0.55693325  0.52122043     0.87200
Mg939      Mg  0.46354293  0.43968578  0.54591550     1.58100
O940        O  0.48366938  0.52055438  0.45309647    -0.88500
O941        O  0.42665007  0.49339260  0.48417199    -0.75900
C942        C  0.59754610  0.43388572  0.48468680     0.92300
O943        O  0.49444433  0.50485237  0.57048948    -0.75700
O944        O  0.58308924  0.42432311  0.50703256    -0.83200
Mg945      Mg  0.44872287  0.51863290  0.55231696     1.58000
C946        C  0.55317485  0.51126117  0.39742907     0.92200
O947        O  0.40152027  0.53471539  0.53798117    -0.81400
H948        H  0.45762769  0.50297236  0.42170611    -0.06800
C949        C  0.56089115  0.50807476  0.49748408     0.87200
O950        O  0.47473847  0.42365662  0.49901718    -0.75900
O951        O  0.46980372  0.54003711  0.51503992    -0.88700
O952        O  0.53972314  0.53195840  0.41067453    -0.81500
C953        C  0.48282551  0.60039291  0.44680614     0.92300
C954        C  0.39137443  0.55152703  0.51742774     0.92200
Mg955      Mg  0.53914702  0.46504004  0.45065996     1.58000
O956        O  0.58603609  0.45064129  0.46500241    -0.81400
O957        O  0.49384814  0.47845194  0.43183694    -0.75700
O958        O  0.46131860  0.58761893  0.46044721    -0.81500
O959        O  0.42936735  0.49684830  0.59374308    -0.83200
O960        O  0.52650520  0.39537246  0.53929022    -0.81600
C961        C  0.47774753  0.50115439  0.43475612     0.86600
O962        O  0.51810259  0.44357578  0.48759732    -0.88700
O963        O  0.54349298  0.50451339  0.47644521    -0.88800
O964        O  0.56262005  0.48945321  0.51877334    -0.75900
Mg965      Mg  0.44632053  0.53967854  0.47366337     1.58000
O966        O  0.50658440  0.58686351  0.44047065    -0.83200
H967        H  0.41439428  0.45495200  0.50472922    -0.07000
O968        O  0.50527466  0.46274663  0.54943047    -0.88500
H969        H  0.53145539  0.48129599  0.58015071    -0.06800
H970        H  0.49664262  0.41545961  0.46081720    -0.07000
C971        C  0.51110772  0.48254016  0.56739130     0.86600
C972        C  0.42771428  0.47504193  0.50575026     0.87200
C973        C  0.49684006  0.42690958  0.48170447     0.87200
H974        H  0.57435217  0.52811689  0.49825977    -0.06900
O975        O  0.51317362  0.56011111  0.50439368    -0.76000
Mg976      Mg  0.54249364  0.44319910  0.52834445     1.58000
H977        H  0.49041202  0.56857403  0.54200766    -0.07000
C978        C  0.43711205  0.47325249  0.60736537     0.92200
O979        O  0.48285537  0.39649147  0.56251014    -0.83200
C980        C  0.50533634  0.38246269  0.55325858     0.92300
O981        O  0.40629554  0.55856059  0.49455066    -0.83200
Mg982      Mg  0.52525336  0.54389949  0.45799357     1.58200
O983        O  0.45087571  0.45243433  0.59443396    -0.81500
O984        O  0.55885330  0.48657605  0.40992343    -0.83200
C985        C  0.99106158  0.78390934  0.60701126     0.86000
C986        C  0.01463581  0.77646566  0.63041599    -0.54200
C987        C  0.01103533  0.74993110  0.64440100     0.09000
C988        C  0.98412400  0.73177538  0.63273475     0.19900
C989        C  0.99350834  0.75730419  0.58556868    -0.54900
C990        C  0.98921048  0.72990088  0.59894821     0.09100
C991        C  0.96129746  0.77939884  0.62263391    -0.54500
C992        C  0.95696128  0.75212900  0.63513177     0.09600
H993        H  0.03461778  0.78972534  0.63398697     0.14200
H994        H  0.98168180  0.71014574  0.64434531    -0.00100
H995        H  0.99949707  0.75947631  0.56247519     0.14500
H996        H  0.94401524  0.79604022  0.62215293     0.14200
O997        O  0.18319472  0.76138425  0.76369118    -0.88800
C998        C  0.22590311  0.75588254  0.68528517     0.87200
Mg999      Mg  0.20294964  0.78357885  0.80059123     1.58100
O1000       O  0.22402939  0.68882295  0.72508895    -0.88500
O1001       O  0.16681213  0.71676357  0.75204776    -0.75900
C1002       C  0.33975510  0.73280721  0.80668899     0.92300
O1003       O  0.22903700  0.80687329  0.73290411    -0.75700
O1004       O  0.32422010  0.75440004  0.81516437    -0.83200
Mg1005     Mg  0.18356900  0.78526260  0.72241532     1.58000
C1006       C  0.29804667  0.63865250  0.73621333     0.92200
O1007       O  0.13635159  0.76595769  0.71091505    -0.81400
H1008       H  0.20056023  0.65686851  0.74574322    -0.06800
C1009       C  0.29914087  0.73826137  0.73325133     0.87200
O1010       O  0.21704553  0.73866799  0.82063101    -0.75900
O1011       O  0.20580660  0.74895840  0.70280359    -0.88700
O1012       O  0.28170929  0.64894835  0.71542518    -0.81500
C1013       C  0.22194538  0.68321704  0.64486585     0.92300
C1014       C  0.12556185  0.74403848  0.69649832     0.92200
Mg1015     Mg  0.28212239  0.69262517  0.77975571     1.58000
O1016       O  0.32853382  0.71124114  0.79224991    -0.81400
O1017       O  0.23734699  0.67036356  0.76830802    -0.75700
O1018       O  0.19997888  0.69564824  0.65733000    -0.81500
O1019       O  0.16340009  0.82701651  0.74162172    -0.83200
O1020       O  0.26774632  0.78455670  0.84372798    -0.81600
C1021       C  0.22001575  0.67121279  0.74598264     0.86600
O1022       O  0.25983794  0.72884654  0.79987007    -0.88700
O1023       O  0.28288865  0.71657523  0.73872247    -0.88800
O1024       O  0.30063672  0.76042603  0.75033633    -0.75900
Mg1025     Mg  0.18492185  0.70642798  0.70556154     1.58000
O1026       O  0.24507196  0.67561141  0.65929663    -0.83200
H1027       H  0.15580075  0.73779807  0.78990688    -0.07000
O1028       O  0.24292663  0.78806459  0.77580608    -0.88500
H1029       H  0.26678373  0.81934362  0.75452226    -0.06800
H1030       H  0.24162473  0.70248357  0.83100300    -0.07000
C1031       C  0.24696145  0.80549257  0.75475388     0.86600
C1032       C  0.16791775  0.73894161  0.76928636     0.87200
C1033       C  0.23991676  0.72259944  0.81784809     0.87200
H1034       H  0.31171853  0.73877010  0.71289602    -0.06900
O1035       O  0.24911221  0.74034974  0.68259456    -0.76000
Mg1036     Mg  0.28178623  0.77115042  0.79618811     1.58000
H1037       H  0.22410118  0.77624951  0.67257373    -0.07000
C1038       C  0.17376171  0.84193408  0.76326875     0.92200
O1039       O  0.22322298  0.80552977  0.84082105    -0.83200
C1040       C  0.24699631  0.79974632  0.85497131     0.92300
O1041       O  0.14208809  0.72333073  0.68756464    -0.83200
Mg1042     Mg  0.26427322  0.69527365  0.70100029     1.58200
O1043       O  0.18896057  0.82969211  0.78375876    -0.81500
O1044       O  0.30415978  0.65323039  0.75944102    -0.83200
C1045       C  0.45922281  0.74518154  0.85271704     0.86000
C1046       C  0.45877977  0.77215587  0.87314614    -0.54200
C1047       C  0.48427650  0.77662883  0.88915972     0.09000
C1048       C  0.50782771  0.75252974  0.88400833     0.19900
C1049       C  0.48756209  0.74885161  0.83398201    -0.54900
C1050       C  0.51299031  0.75309105  0.85023048     0.09100
C1051       C  0.46600162  0.71957710  0.87434741    -0.54500
C1052       C  0.49174324  0.72272085  0.88981825     0.09600
H1053       H  0.43990211  0.78683895  0.87459960     0.14200
H1054       H  0.52825204  0.75507558  0.89760399    -0.00100
H1055       H  0.48741350  0.74652385  0.81012031     0.14500
H1056       H  0.45279542  0.69948334  0.87686128     0.14200
C1057       C  0.38650072  0.76154041  0.81133848    -0.20800
C1058       C  0.37190468  0.73390642  0.81325054    -0.07300
C1059       C  0.38821327  0.70872626  0.82172437     0.13600
C1060       C  0.41766009  0.71252478  0.83134129    -0.20800
C1061       C  0.43090372  0.74097792  0.83404635    -0.07300
C1062       C  0.41611269  0.76520921  0.82041126     0.13500
C1063       C  0.43047374  0.79515138  0.81474896    -0.24200
H1064       H  0.37463677  0.78056603  0.80266002     0.14800
H1065       H  0.42998545  0.69286664  0.83690487     0.14900
C1066       C  0.37446687  0.67805017  0.82212647    -0.24100
H1067       H  0.42845514  0.80089838  0.79084026     0.05100
H1068       H  0.45447465  0.79590997  0.82013997     0.08300
H1069       H  0.41896396  0.81227601  0.82777163     0.08300
H1070       H  0.36798782  0.67158778  0.79933198     0.08300
H1071       H  0.35457185  0.67758853  0.83663400     0.08300
H1072       H  0.39018086  0.66116706  0.83071967     0.05100
C1073       C  0.04234752  0.76007481  0.68827733    -0.20800
C1074       C  0.03468806  0.74036126  0.66547354    -0.07300
C1075       C  0.05511087  0.71830856  0.65782126     0.13600
C1076       C  0.08383471  0.71919522  0.66987605    -0.20800
C1077       C  0.09314439  0.74189643  0.68913553    -0.07300
C1078       C  0.07132173  0.76131148  0.70015139     0.13500
C1079       C  0.07820251  0.78388861  0.72363863    -0.24200
H1080       H  0.02636600  0.77662522  0.69465898     0.14800
H1081       H  0.09971710  0.70308997  0.66232252     0.14900
C1082       C  0.04828685  0.69594097  0.63438029    -0.24100
H1083       H  0.05796067  0.79584896  0.73051679     0.05100
H1084       H  0.09430355  0.80069457  0.71509063     0.08300
H1085       H  0.08744071  0.77265559  0.74360829     0.08300
H1086       H  0.04651916  0.70788793  0.61304397     0.08300
H1087       H  0.02738493  0.68369266  0.63963819     0.08300
H1088       H  0.06623586  0.67941687  0.63217981     0.05100
C1089       C  0.05322027  0.52063242  0.16792570    -0.20800
C1090       C  0.06871213  0.50826533  0.14404556    -0.07300
C1091       C  0.09335070  0.48960979  0.15061948     0.13600
C1092       C  0.10309100  0.48637675  0.18013674    -0.20800
C1093       C  0.08908034  0.50102349  0.20326979    -0.07300
C1094       C  0.06308343  0.51718556  0.19730777     0.13500
C1095       C  0.04621019  0.53143885  0.22204280    -0.24200
H1096       H  0.03367243  0.53382879  0.16364989     0.14800
H1097       H  0.12325581  0.47425065  0.18494597     0.14900
C1098       C  0.11048656  0.47376616  0.12701464    -0.24100
H1099       H  0.02614427  0.54305011  0.21373135     0.05100
H1100       H  0.06050529  0.54787254  0.23355058     0.08300
H1101       H  0.03896261  0.51415001  0.23824570     0.08300
H1102       H  0.12060877  0.49009453  0.11135769     0.08300
H1103       H  0.09548525  0.45826770  0.11497663     0.08300
H1104       H  0.12886269  0.46040577  0.13654626     0.05100
C1105       C  0.98027802  0.64839967  0.57797652    -0.20800
C1106       C  0.00652117  0.64353390  0.56201963    -0.07300
C1107       C  0.02490446  0.66842381  0.55479729     0.13600
C1108       C  0.01738454  0.69666498  0.56529112    -0.20800
C1109       C  0.99244705  0.70088393  0.58339685    -0.07300
C1110       C  0.97272058  0.67657187  0.58824465     0.13500
C1111       C  0.94254452  0.68013712  0.60212619    -0.24200
H1112       H  0.96512518  0.62996568  0.58219036     0.14800
H1113       H  0.03215217  0.71533667  0.56077668     0.14900
C1114       C  0.05298002  0.66562373  0.53694380    -0.24100
H1115       H  0.92900613  0.65941607  0.60092941     0.05100
H1116       H  0.93018264  0.69747986  0.58992922     0.08300
H1117       H  0.94426190  0.68569985  0.62579490     0.08300
H1118       H  0.04749246  0.65813628  0.51420411     0.08300
H1119       H  0.06814271  0.64963215  0.54792203     0.08300
H1120       H  0.06512857  0.68712560  0.53477271     0.05100
C1121       C  0.06681940  0.48704558  0.31268007    -0.20800
C1122       C  0.09762834  0.49228068  0.31233776    -0.07300
C1123       C  0.11354105  0.49174015  0.33960491     0.13600
C1124       C  0.09811378  0.48747122  0.36621270    -0.20800
C1125       C  0.06713619  0.48365532  0.36689499    -0.07300
C1126       C  0.05127975  0.48299454  0.33960554     0.13500
C1127       C  0.01789119  0.47998144  0.33867655    -0.24200
H1128       H  0.05463748  0.48788881  0.29191729     0.14800
H1129       H  0.11055936  0.48758449  0.38685037     0.14900
C1130       C  0.14686665  0.49595421  0.34189942    -0.24100
H1131       H  0.00913609  0.48155835  0.31566659     0.05100
H1132       H  0.00774191  0.49796667  0.35169661     0.08300
H1133       H  0.01092307  0.45811617  0.34791583     0.08300
H1134       H  0.15201463  0.51657574  0.35419791     0.08300
H1135       H  0.15814093  0.49720134  0.32016900     0.08300
H1136       H  0.15655047  0.47689512  0.35420544     0.05100
C1137       C  0.51114362  0.65974158  0.94225325    -0.20800
C1138       C  0.51524921  0.63691892  0.92172373    -0.07300
C1139       C  0.51665053  0.64389116  0.89125395     0.13600
C1140       C  0.51240601  0.67322882  0.88185516    -0.20800
C1141       C  0.50561385  0.69558245  0.90207786    -0.07300
C1142       C  0.50576458  0.68903892  0.93265382     0.13500
C1143       C  0.49855353  0.71254106  0.95480946    -0.24200
H1144       H  0.51021385  0.65426789  0.96567341     0.14800
H1145       H  0.51214317  0.67840770  0.85833847     0.14900
C1146       C  0.52179004  0.62025843  0.86857556    -0.24100
H1147       H  0.49942159  0.70377181  0.97788208     0.05100
H1148       H  0.47582727  0.72104703  0.95057747     0.08300
H1149       H  0.51483121  0.73116049  0.95278511     0.08300
H1150       H  0.50344912  0.60356584  0.86934155     0.08300
H1151       H  0.54321648  0.60915878  0.87323841     0.08300
H1152       H  0.52269487  0.62966116  0.84574576     0.05100
C1153       C  0.48173499  0.35765917  0.08716464    -0.20800
C1154       C  0.50823572  0.37021865  0.07601143    -0.07300
C1155       C  0.53393163  0.35231949  0.07456036     0.13600
C1156       C  0.53234221  0.32261085  0.08423204    -0.20800
C1157       C  0.50600342  0.31033040  0.09575315    -0.07300
C1158       C  0.48042067  0.32806425  0.09732933     0.13500
C1159       C  0.45154724  0.31562866  0.10903228    -0.24200
H1160       H  0.46199031  0.37115364  0.08814264     0.14800
H1161       H  0.55185628  0.30881011  0.08292373     0.14900
C1162       C  0.56287161  0.36391080  0.06191855    -0.24100
H1163       H  0.43356254  0.33227747  0.10821977     0.05100
H1164       H  0.45444419  0.30845935  0.13243374     0.08300
H1165       H  0.44446152  0.29646450  0.09541659     0.08300
H1166       H  0.57205300  0.38178889  0.07608046     0.08300
H1167       H  0.55921610  0.37254380  0.03907575     0.08300
H1168       H  0.57988804  0.34631532  0.06084646     0.05100
C1169       C  0.50922950  0.85139866  0.92002374    -0.20800
C1170       C  0.48445653  0.85882904  0.93729447    -0.07300
C1171       C  0.46169635  0.83709583  0.94163859     0.13600
C1172       C  0.46371840  0.80965648  0.92739505    -0.20800
C1173       C  0.48755048  0.80304772  0.90866450    -0.07300
C1174       C  0.51110805  0.82396236  0.90568867     0.13500
C1175       C  0.53755915  0.81852484  0.88623843    -0.24200
H1176       H  0.52709256  0.86749803  0.91709086     0.14800
H1177       H  0.44581842  0.79351426  0.92992744     0.14900
C1178       C  0.43445713  0.84271081  0.96006025    -0.24100
H1179       H  0.55278978  0.83808522  0.88512649     0.05100
H1180       H  0.52996959  0.81385057  0.86344388     0.08300
H1181       H  0.55061645  0.79972060  0.89505657     0.08300
H1182       H  0.42242039  0.86222381  0.95112027     0.08300
H1183       H  0.44100590  0.84650707  0.98345522     0.08300
H1184       H  0.41869216  0.82355288  0.95993468     0.05100
C1185       C  0.51855473  0.16193688  0.04193818    -0.20800
C1186       C  0.52150325  0.13731462  0.06091872    -0.07300
C1187       C  0.52219246  0.14169454  0.09173731     0.13600
C1188       C  0.51911876  0.17031617  0.10267432    -0.20800
C1189       C  0.51556609  0.19553380  0.08409359    -0.07300
C1190       C  0.51539372  0.19094084  0.05286201     0.13500
C1191       C  0.51160739  0.21537443  0.03036055    -0.24200
H1192       H  0.51811081  0.15827903  0.01825497     0.14800
H1193       H  0.51934991  0.17307435  0.12649313     0.14900
C1194       C  0.52706975  0.11647507  0.11342779    -0.24100
H1195       H  0.51118742  0.20688821  0.00735580     0.05100
H1196       H  0.53077662  0.23103334  0.03161607     0.08300
H1197       H  0.49002165  0.22646491  0.03381083     0.08300
H1198       H  0.54781878  0.10470959  0.10780214     0.08300
H1199       H  0.50791860  0.10075513  0.11292553     0.08300
H1200       H  0.52932021  0.12441328  0.13654134     0.05100
C1201       C  0.30455972  0.06746751  0.49518940    -0.20800
C1202       C  0.30249599  0.09845713  0.49476109    -0.07300
C1203       C  0.32846828  0.11591229  0.48956391     0.13600
C1204       C  0.35609235  0.10205591  0.48744203    -0.20800
C1205       C  0.35846929  0.07127385  0.49011547    -0.07300
C1206       C  0.33238794  0.05362581  0.49289266     0.13500
C1207       C  0.33415441  0.02038211  0.49522625    -0.24200
H1208       H  0.28472510  0.05420911  0.49942738     0.14800
H1209       H  0.37616502  0.11540826  0.48493539     0.14900
C1210       C  0.32743479  0.14932009  0.48732467    -0.24100
H1211       H  0.31179255  0.00994398  0.49782059     0.05100
H1212       H  0.34790953  0.01403867  0.51471424     0.08300
H1213       H  0.34439081  0.01153874  0.47486468     0.08300
H1214       H  0.32033926  0.15900322  0.50857544     0.08300
H1215       H  0.31176334  0.15606218  0.46957801     0.08300
H1216       H  0.34957033  0.15909114  0.48189890     0.05100
C1217       C  0.97590332  0.85726314  0.56378099    -0.20800
C1218       C  0.98956185  0.87825302  0.58225258    -0.07300
C1219       C  0.00453322  0.86837057  0.60792281     0.13600
C1220       C  0.00533879  0.83799066  0.61433364    -0.20800
C1221       C  0.99323286  0.81618241  0.59516827    -0.07300
C1222       C  0.97735857  0.82658660  0.56977736     0.13500
C1223       C  0.96102120  0.80615684  0.54897754    -0.24200
H1224       H  0.96422259  0.86496554  0.54415552     0.14800
H1225       H  0.01432892  0.83188374  0.63568453     0.14900
C1226       C  0.01848606  0.88967678  0.62971317    -0.24100
H1227       H  0.94741197  0.81859825  0.53257584     0.05100
H1228       H  0.94561141  0.79147986  0.56145464     0.08300
H1229       H  0.97700054  0.79308971  0.53610273     0.08300
H1230       H  0.00176462  0.90594318  0.63696981     0.08300
H1231       H  0.03770643  0.90145873  0.61941528     0.08300
H1232       H  0.02704243  0.87813808  0.64981084     0.05100
C1233       C  0.17314430  0.10863219  0.48667740    -0.20800
C1234       C  0.19195037  0.09432364  0.50689875    -0.07300
C1235       C  0.18027922  0.07146230  0.52518819     0.13600
C1236       C  0.14963826  0.06503535  0.52440155    -0.20800
C1237       C  0.13015024  0.08082032  0.50568613    -0.07300
C1238       C  0.14242622  0.10238207  0.48581612     0.13500
C1239       C  0.12349933  0.12006822  0.46455788    -0.24200
H1240       H  0.18226668  0.12617578  0.47272369     0.14800
H1241       H  0.14084172  0.04771759  0.53885390     0.14900
C1242       C  0.20018791  0.05378206  0.54550654    -0.24100
H1243       H  0.13682812  0.13689567  0.45207184     0.05100
H1244       H  0.10611054  0.13199157  0.47690784     0.08300
H1245       H  0.11304093  0.10514515  0.44803290     0.08300
H1246       H  0.21057882  0.06824684  0.56242182     0.08300
H1247       H  0.21793902  0.04331062  0.53233396     0.08300
H1248       H  0.18765260  0.03591959  0.55735803     0.05100
C1249       C  0.45488884  0.02391769  0.15583356    -0.20800
C1250       C  0.43644706  0.01680856  0.13167805    -0.07300
C1251       C  0.40745816  0.00575857  0.13716161     0.13600
C1252       C  0.39799377  0.00227037  0.16637092    -0.20800
C1253       C  0.41671898  0.00775078  0.19105838    -0.07300
C1254       C  0.44552291  0.01990948  0.18530322     0.13500
C1255       C  0.46671875  0.02960649  0.20933628    -0.24200
H1256       H  0.47710678  0.03255873  0.15164237     0.14800
H1257       H  0.37487492  0.99625490  0.16965159     0.14900
C1258       C  0.38557379  0.99854586  0.11267068    -0.24100
H1259       H  0.48615831  0.04205022  0.20020525     0.05100
H1260       H  0.47586774  0.00991553  0.22089131     0.08300
H1261       H  0.45553241  0.04457385  0.22494794     0.08300
H1262       H  0.39347276  0.97938947  0.09977608     0.08300
H1263       H  0.38270161  0.01815169  0.09791305     0.08300
H1264       H  0.36327229  0.99223476  0.12137785     0.05100
C1265       C  0.42341252  0.02012826  0.35533525    -0.20800
C1266       C  0.42629351  0.99133430  0.36711198    -0.07300
C1267       C  0.42406284  0.96692675  0.34760422     0.13600
C1268       C  0.41778874  0.97216112  0.31736084    -0.20800
C1269       C  0.41332502  0.00096110  0.30630208    -0.07300
C1270       C  0.41699958  0.02519127  0.32543380     0.13500
C1271       C  0.41457758  0.05659262  0.31446988    -0.24200
H1272       H  0.42612891  0.03909318  0.36968496     0.14800
H1273       H  0.41570346  0.95364706  0.30239929     0.14900
C1274       C  0.42727880  0.93540403  0.35838735    -0.24100
H1275       H  0.41946100  0.07291709  0.33213098     0.05100
H1276       H  0.39166424  0.06054152  0.30662770     0.08300
H1277       H  0.43084104  0.06044480  0.29640957     0.08300
H1278       H  0.41080928  0.93053465  0.37610046     0.08300
H1279       H  0.45012839  0.93193254  0.36701304     0.08300
H1280       H  0.42341476  0.91927192  0.34032100     0.05100
C1281       C  0.14559163  0.40610450  0.02016973    -0.20800
C1282       C  0.14293957  0.43676839  0.02152697    -0.07300
C1283       C  0.16862183  0.45496410  0.01865307     0.13600
C1284       C  0.19643829  0.44176756  0.01437467    -0.20800
C1285       C  0.19938694  0.41074777  0.01341069    -0.07300
C1286       C  0.17308715  0.39268732  0.01667907     0.13500
C1287       C  0.17203996  0.35905763  0.01711143    -0.24200
H1288       H  0.12579992  0.39221968  0.02242531     0.14800
H1289       H  0.21572189  0.45607844  0.01212801     0.14900
C1290       C  0.16678213  0.48829824  0.01917893    -0.24100
H1291       H  0.16188420  0.35118021  0.03821527     0.05100
H1292       H  0.19358139  0.34790280  0.01540865     0.08300
H1293       H  0.15794909  0.35115220  0.99846748     0.08300
H1294       H  0.15893902  0.49558162  0.04117220     0.08300
H1295       H  0.15119692  0.49608321  0.00169731     0.08300
H1296       H  0.18876445  0.49907044  0.01513117     0.05100
C1297       C  0.33743351  0.39555564  0.01907659    -0.20800
C1298       C  0.31567148  0.41002027  0.00206005    -0.07300
C1299       C  0.32497343  0.43219420  0.98147715     0.13600
C1300       C  0.35545489  0.43978337  0.97940111    -0.20800
C1301       C  0.37709562  0.42583226  0.99718518    -0.07300
C1302       C  0.36774037  0.40287453  0.01696003     0.13500
C1303       C  0.38930429  0.38512293  0.03554937    -0.24200
H1304       H  0.33070542  0.37815818  0.03443264     0.14800
H1305       H  0.36233638  0.45713189  0.96403045     0.14900
C1306       C  0.30337524  0.44720913  0.96074723    -0.24100
H1307       H  0.37810251  0.36641473  0.04741872     0.05100
H1308       H  0.39974821  0.39932438  0.05269030     0.08300
H1309       H  0.40663663  0.37554449  0.02117863     0.08300
H1310       H  0.28856960  0.46190619  0.97327143     0.08300
H1311       H  0.28990793  0.43045385  0.94863668     0.08300
H1312       H  0.31506291  0.46128589  0.94401997     0.05100
C1313       C  0.17241875  0.40045627  0.26244691    -0.20800
C1314       C  0.19333607  0.39693768  0.23969452    -0.07300
C1315       C  0.19943259  0.42176180  0.22085593     0.13600
C1316       C  0.18456495  0.44879224  0.22545650    -0.20800
C1317       C  0.16377978  0.45212831  0.24839767    -0.07300
C1318       C  0.15789763  0.42737758  0.26724087     0.13500
C1319       C  0.13795696  0.42915217  0.29387447    -0.24200
H1320       H  0.16765894  0.38199519  0.27728803     0.14800
H1321       H  0.18914137  0.46753719  0.21089148     0.14900
C1322       C  0.22128975  0.42021226  0.19571464    -0.24100
H1323       H  0.13853952  0.40859857  0.30761762     0.05100
H1324       H  0.11451165  0.43221652  0.28728678     0.08300
H1325       H  0.14566156  0.44745961  0.30804104     0.08300
H1326       H  0.21440600  0.40248017  0.18016776     0.08300
H1327       H  0.24390672  0.41573963  0.20451787     0.08300
H1328       H  0.22255469  0.44136934  0.18292479     0.05100
C1329       C  0.22309947  0.19910334  0.41823320    -0.20800
C1330       C  0.24209584  0.18797496  0.39627079    -0.07300
C1331       C  0.26020611  0.16336077  0.40392663     0.13600
C1332       C  0.25980091  0.15201352  0.43306771    -0.20800
C1333       C  0.24175677  0.16392261  0.45515945    -0.07300
C1334       C  0.22238474  0.18726025  0.44728615     0.13500
C1335       C  0.19979279  0.19891678  0.46870391    -0.24200
H1336       H  0.20843414  0.21722261  0.41267314     0.14800
H1337       H  0.27410342  0.13363290  0.43870519     0.14900
C1338       C  0.28021305  0.14854016  0.38193195    -0.24100
H1339       H  0.18422091  0.21448672  0.45765988     0.05100
H1340       H  0.21090783  0.21126042  0.48675111     0.08300
H1341       H  0.18635826  0.18032131  0.47815832     0.08300
H1342       H  0.29706222  0.16462943  0.37342558     0.08300
H1343       H  0.26674303  0.13946970  0.36336597     0.08300
H1344       H  0.29244746  0.12969447  0.39203755     0.05100
C1345       C  0.42478597  0.24280535  0.20336762    -0.20800
C1346       C  0.39790480  0.24467539  0.18738074    -0.07300
C1347       C  0.39910927  0.24815748  0.15606025     0.13600
C1348       C  0.42677646  0.24936411  0.14193015    -0.20800
C1349       C  0.45348373  0.24755981  0.15784280    -0.07300
C1350       C  0.45252892  0.24410249  0.18890757     0.13500
C1351       C  0.48059862  0.23986416  0.20649911    -0.24200
H1352       H  0.42409544  0.23993527  0.22722003     0.14800
H1353       H  0.42763254  0.25098228  0.11798083     0.14900
C1354       C  0.37153410  0.24929778  0.13687535    -0.24100
H1355       H  0.47606220  0.23733096  0.23056621     0.05100
H1356       H  0.49577867  0.25920381  0.20325429     0.08300
H1357       H  0.49155681  0.21943734  0.19889383     0.08300
H1358       H  0.35895289  0.26974867  0.14136708     0.08300
H1359       H  0.35731308  0.22942002  0.14116094     0.08300
H1360       H  0.37699905  0.24969627  0.11289539     0.05100
C1361       C  0.36037609  0.12257729  0.26465677    -0.20800
C1362       C  0.33052624  0.12374663  0.27336756    -0.07300
C1363       C  0.31386771  0.09684425  0.27556715     0.13600
C1364       C  0.32752624  0.06984994  0.26863852    -0.20800
C1365       C  0.35718774  0.06896041  0.25927912    -0.07300
C1366       C  0.37405341  0.09583889  0.25795045     0.13500
C1367       C  0.40679077  0.09774646  0.25061430    -0.24200
H1368       H  0.37351156  0.14290577  0.26326891     0.14800
H1369       H  0.31468463  0.04934209  0.26966213     0.14900
C1370       C  0.28143977  0.09630648  0.28388776    -0.24100
H1371       H  0.41877518  0.10985558  0.26842377     0.05100
H1372       H  0.40989980  0.11012011  0.22942739     0.08300
H1373       H  0.41762022  0.07604536  0.24889890     0.08300
H1374       H  0.26864927  0.11044316  0.26821870     0.08300
H1375       H  0.27875147  0.10440039  0.30682197     0.08300
H1376       H  0.27176216  0.07355400  0.28307077     0.05100
C1377       C  0.28501883  0.35455028  0.11647771    -0.20800
C1378       C  0.28093691  0.32411129  0.12116003    -0.07300
C1379       C  0.27426499  0.30549061  0.09687311     0.13600
C1380       C  0.27058037  0.31818436  0.06858549    -0.20800
C1381       C  0.27313690  0.34884583  0.06429604    -0.07300
C1382       C  0.28115242  0.36725186  0.08837265     0.13500
C1383       C  0.28468212  0.40045370  0.08495048    -0.24200
H1384       H  0.29048222  0.36856318  0.13513446     0.14800
H1385       H  0.26385360  0.30441466  0.05013781     0.14900
C1386       C  0.26902922  0.27261995  0.10094210    -0.24100
H1387       H  0.29193722  0.41093841  0.10596103     0.05100
H1388       H  0.26332600  0.41066576  0.07841949     0.08300
H1389       H  0.30168708  0.40584227  0.06803558     0.08300
H1390       H  0.25098484  0.26859696  0.11730400     0.08300
H1391       H  0.28971562  0.26189419  0.10881318     0.08300
H1392       H  0.26232335  0.26188256  0.07987442     0.05100
C1393       C  0.95959357  0.35278548  0.42372208    -0.20800
C1394       C  0.98106619  0.36549074  0.44237268    -0.07300
C1395       C  0.00645979  0.34916127  0.45028492     0.13600
C1396       C  0.01112839  0.32154125  0.43723906    -0.20800
C1397       C  0.99120209  0.30994415  0.41609767    -0.07300
C1398       C  0.96430031  0.32514143  0.41042353     0.13500
C1399       C  0.94127209  0.31356234  0.38913800    -0.24200
H1400       H  0.93975638  0.36521798  0.41842854     0.14800
H1401       H  0.03145782  0.30973720  0.44213826     0.14900
C1402       C  0.02900731  0.36126100  0.47193691    -0.24100
H1403       H  0.92210179  0.32872857  0.38695604     0.05100
H1404       H  0.93250571  0.29180212  0.39695236     0.08300
H1405       H  0.95123820  0.31146045  0.36699665     0.08300
H1406       H  0.01806559  0.36547614  0.49347902     0.08300
H1407       H  0.03873981  0.38232194  0.46322050     0.08300
H1408       H  0.04743414  0.34551739  0.47593185     0.05100
C1409       C  0.01209654  0.16588981  0.44568905    -0.20800
C1410       C  0.99850907  0.14374003  0.42844088    -0.07300
C1411       C  0.98662651  0.15150883  0.40030452     0.13600
C1412       C  0.98886004  0.18106642  0.39023762    -0.20800
C1413       C  0.00244277  0.20304746  0.40754510    -0.07300
C1414       C  0.01422041  0.19539594  0.43554746     0.13500
C1415       C  0.02935361  0.21835131  0.45453996    -0.24200
H1416       H  0.02116396  0.16005918  0.46723048     0.14800
H1417       H  0.98119792  0.18680486  0.36814920     0.14900
C1418       C  0.97309346  0.12859369  0.38006489    -0.24100
H1419       H  0.03685024  0.20882882  0.47605668     0.05100
H1420       H  0.01370228  0.23656220  0.45907878     0.08300
H1421       H  0.04915720  0.22758289  0.44295834     0.08300
H1422       H  0.95261721  0.11897991  0.39009272     0.08300
H1423       H  0.98933710  0.11072643  0.37608330     0.08300
H1424       H  0.96681135  0.13831991  0.35823259     0.05100
C1425       C  0.07359859  0.27453113  0.31825809    -0.20800
C1426       C  0.06942455  0.27046177  0.34899061    -0.07300
C1427       C  0.09520234  0.27146656  0.36770529     0.13600
C1428       C  0.12351381  0.27445626  0.35497447    -0.20800
C1429       C  0.12727027  0.27734938  0.32437427    -0.07300
C1430       C  0.10193345  0.27771332  0.30575662     0.13500
C1431       C  0.10440130  0.28035905  0.27246442    -0.24200
H1432       H  0.05499739  0.27554707  0.30332055     0.14800
H1433       H  0.14305955  0.27471540  0.36911890     0.14900
C1434       C  0.09388517  0.26955173  0.40120300    -0.24100
H1435       H  0.08242243  0.27815885  0.26132981     0.05100
H1436       H  0.11883173  0.26258216  0.26395769     0.08300
H1437       H  0.11374752  0.30240553  0.26615838     0.08300
H1438       H  0.08478645  0.24791660  0.40869117     0.08300
H1439       H  0.08062906  0.28777893  0.41035652     0.08300
H1440       H  0.11633432  0.27157315  0.41140269     0.05100
C1441       C  0.89946276  0.02681284  0.18259645    -0.20800
C1442       C  0.90667046  0.00400267  0.20250805    -0.07300
C1443       C  0.92421707  0.98038551  0.19243538     0.13600
C1444       C  0.93355609  0.98014050  0.16253377    -0.20800
C1445       C  0.92572939  0.00283920  0.14223765    -0.07300
C1446       C  0.90841096  0.02673789  0.15292507     0.13500
C1447       C  0.89845806  0.05243528  0.13367984    -0.24200
H1448       H  0.88598015  0.04490133  0.19029352     0.14800
H1449       H  0.94690005  0.96188597  0.15496806     0.14900
C1450       C  0.93230693  0.95494211  0.21265676    -0.24100
H1451       H  0.88471766  0.06839562  0.14605075     0.05100
H1452       H  0.88456520  0.04419792  0.11504785     0.08300
H1453       H  0.91808527  0.06501317  0.12522532     0.08300
H1454       H  0.91192545  0.94459832  0.22218913     0.08300
H1455       H  0.94691052  0.96293010  0.23080179     0.08300
H1456       H  0.94453822  0.93754312  0.20068575     0.05100
C1457       C  0.93166452  0.02711912  0.35655805    -0.20800
C1458       C  0.91296146  0.01569814  0.37886905    -0.07300
C1459       C  0.88504766  0.00367516  0.37093020     0.13600
C1460       C  0.87742527  0.00187232  0.34097665    -0.20800
C1461       C  0.89719910  0.01038496  0.31790457    -0.07300
C1462       C  0.92405288  0.02518419  0.32632376     0.13500
C1463       C  0.94460958  0.04005277  0.30428708    -0.24200
H1464       H  0.95269532  0.03730461  0.36282070     0.14800
H1465       H  0.85501121  0.99459738  0.33598259     0.14900
C1466       C  0.86239333  0.99396547  0.39383799    -0.24100
H1467       H  0.96133177  0.05448769  0.31543325     0.05100
H1468       H  0.93190282  0.05439214  0.28883944     0.08300
H1469       H  0.95729005  0.02327981  0.29210651     0.08300
H1470       H  0.85830157  0.01233792  0.40942009     0.08300
H1471       H  0.87034667  0.97422442  0.40624390     0.08300
H1472       H  0.84072756  0.98770014  0.38361417     0.05100
C1473       C  0.86115302  0.12194985  0.23101360    -0.20800
C1474       C  0.83095178  0.12845106  0.22833289    -0.07300
C1475       C  0.80969696  0.10504467  0.22821268     0.13600
C1476       C  0.81912441  0.07576482  0.23331283    -0.20800
C1477       C  0.84922972  0.06962344  0.23823715    -0.07300
C1478       C  0.87065034  0.09282415  0.23533380     0.13500
C1479       C  0.90371150  0.08787940  0.23718087    -0.24200
H1480       H  0.87746380  0.13986346  0.23039854     0.14800
H1481       H  0.80283601  0.05794942  0.23530794     0.14900
C1482       C  0.77700132  0.11111708  0.22467571    -0.24100
H1483       H  0.91445621  0.09662457  0.21670673     0.05100
H1484       H  0.90954559  0.06421965  0.23914167     0.08300
H1485       H  0.91308276  0.09978272  0.25654538     0.08300
H1486       H  0.77281977  0.12173079  0.20277224     0.08300
H1487       H  0.76954486  0.12608308  0.24246346     0.08300
H1488       H  0.76342386  0.09040839  0.22596049     0.05100
C1489       C  0.93460287  0.23521773  0.34597484    -0.20800
C1490       C  0.95544161  0.25702665  0.33713524    -0.07300
C1491       C  0.94735254  0.27776628  0.31465765     0.13600
C1492       C  0.91871573  0.27619620  0.30221806    -0.20800
C1493       C  0.89818174  0.25420526  0.31089468    -0.07300
C1494       C  0.90619886  0.23338005  0.33296604     0.13500
C1495       C  0.88438951  0.21011307  0.34381174    -0.24200
H1496       H  0.94039558  0.21969868  0.36345555     0.14800
H1497       H  0.91218393  0.29235654  0.28553210     0.14900
C1498       C  0.96789047  0.30253261  0.30433984    -0.24100
H1499       H  0.89400258  0.19618993  0.36181083     0.05100
H1500       H  0.87795884  0.19531054  0.32533850     0.08300
H1501       H  0.86422502  0.22091852  0.35256483     0.08300
H1502       H  0.98602775  0.29356063  0.29070778     0.08300
H1503       H  0.97744138  0.31468770  0.32342821     0.08300
H1504       H  0.95603162  0.31891041  0.29020050     0.05100
C1505       C  0.60647927  0.24362855  0.18501543    -0.20800
C1506       C  0.62185701  0.26942437  0.17619935    -0.07300
C1507       C  0.60613411  0.29247043  0.16183131     0.13600
C1508       C  0.57618150  0.28759875  0.15364782    -0.20800
C1509       C  0.56176874  0.26045697  0.15995278    -0.07300
C1510       C  0.57656374  0.23904385  0.17754269     0.13500
C1511       C  0.56100706  0.21119504  0.18841260    -0.24200
H1512       H  0.61822240  0.22659161  0.19732320     0.14800
H1513       H  0.56476788  0.30408437  0.14034545     0.14900
C1514       C  0.62129003  0.32128320  0.15343435    -0.24100
H1515       H  0.57601202  0.19711998  0.20200143     0.05100
H1516       H  0.55281733  0.19755068  0.16977556     0.08300
H1517       H  0.54210259  0.21733955  0.20260394     0.08300
H1518       H  0.64056170  0.31696620  0.13888132     0.08300
H1519       H  0.62911897  0.33276174  0.17370803     0.08300
H1520       H  0.60598169  0.33638942  0.14139220     0.05100
C1521       C  0.99065206  0.31924599  0.93351662    -0.20800
C1522       C  0.01243773  0.30664781  0.91547791    -0.07300
C1523       C  0.04049705  0.32105174  0.91291233     0.13600
C1524       C  0.04512600  0.34871013  0.92650306    -0.20800
C1525       C  0.02217108  0.36242685  0.94193692    -0.07300
C1526       C  0.99501916  0.34707978  0.94642011     0.13500
C1527       C  0.97036113  0.36035955  0.96428432    -0.24200
H1528       H  0.96921031  0.30816922  0.93569398     0.14800
H1529       H  0.06613384  0.36044119  0.92367091     0.14900
C1530       C  0.06487969  0.30854594  0.89433841    -0.24100
H1531       H  0.95082111  0.34513912  0.96605629     0.05100
H1532       H  0.96284678  0.38127904  0.95364745     0.08300
H1533       H  0.97847249  0.36508153  0.98703173     0.08300
H1534       H  0.05716754  0.30692919  0.87116123     0.08300
H1535       H  0.07109644  0.28632584  0.90284415     0.08300
H1536       H  0.08515715  0.32286181  0.89452616     0.05100
C1537       C  0.98915320  0.19524699  0.93456211    -0.20800
C1538       C  0.99177039  0.19952275  0.90384805    -0.07300
C1539       C  0.99332217  0.17444043  0.88526738     0.13600
C1540       C  0.99220396  0.14589920  0.89786581    -0.20800
C1541       C  0.98882972  0.14152961  0.92841821    -0.07300
C1542       C  0.98751334  0.16647275  0.94708839     0.13500
C1543       C  0.98515334  0.16275860  0.98018581    -0.24200
H1544       H  0.98775812  0.21445218  0.94868072     0.14800
H1545       H  0.99368536  0.12672089  0.88370346     0.14900
C1546       C  0.99628765  0.17743896  0.85206402    -0.24100
H1547       H  0.98521464  0.18448209  0.99153645     0.05100
H1548       H  0.00430160  0.14983146  0.98869025     0.08300
H1549       H  0.96413476  0.15090365  0.98588282     0.08300
H1550       H  0.01640903  0.19069656  0.84645834     0.08300
H1551       H  0.97641105  0.18821014  0.84237904     0.08300
H1552       H  0.99836453  0.15552582  0.84134151     0.05100
C1553       C  0.10020898  0.26333378  0.81989872    -0.20800
C1554       C  0.11626725  0.24070104  0.83393659    -0.07300
C1555       C  0.10134973  0.22083701  0.85323374     0.13600
C1556       C  0.07094237  0.22494630  0.85907262    -0.20800
C1557       C  0.05471640  0.24785036  0.84529973    -0.07300
C1558       C  0.06956956  0.26682922  0.82467211     0.13500
C1559       C  0.05393670  0.29129330  0.80793253    -0.24200
H1560       H  0.11177859  0.27821642  0.80469927     0.14800
H1561       H  0.05982861  0.21027745  0.87476894     0.14900
C1562       C  0.11769718  0.19597937  0.86838447    -0.24100
H1563       H  0.06993526  0.30593622  0.79586059     0.05100
H1564       H  0.04115661  0.30540323  0.82312579     0.08300
H1565       H  0.03882687  0.28163797  0.79105240     0.08300
H1566       H  0.13623098  0.20517436  0.88191518     0.08300
H1567       H  0.12682382  0.18085301  0.85155387     0.08300
H1568       H  0.10284620  0.18277252  0.88321991     0.05100
C1569       C  0.27896010  0.32824908  0.90874080    -0.20800
C1570       C  0.25229666  0.31438294  0.89936548    -0.07300
C1571       C  0.22953338  0.30931277  0.92054110     0.13600
C1572       C  0.23295827  0.32098787  0.94906793    -0.20800
C1573       C  0.25810994  0.33802399  0.95702695    -0.07300
C1574       C  0.28217996  0.34015989  0.93711478     0.13500
C1575       C  0.31064975  0.35642243  0.94450636    -0.24200
H1576       H  0.29724352  0.33097618  0.89336220     0.14800
H1577       H  0.21483936  0.31866176  0.96473575     0.14900
C1578       C  0.20113591  0.29269164  0.91340022    -0.24100
H1579       H  0.32657528  0.35652277  0.92576228     0.05100
H1580       H  0.32188993  0.34552509  0.96353906     0.08300
H1581       H  0.30582729  0.37976401  0.94952288     0.08300
H1582       H  0.20632564  0.26985495  0.90628045     0.08300
H1583       H  0.18871981  0.30452452  0.89566925     0.08300
H1584       H  0.18624230  0.29075756  0.93291515     0.05100
C1585       C  0.22848159  0.18137183  0.61332198    -0.20800
C1586       C  0.25580032  0.18132751  0.62849315    -0.07300
C1587       C  0.28208890  0.17608659  0.61238581     0.13600
C1588       C  0.27985195  0.16787673  0.58259593    -0.20800
C1589       C  0.25208352  0.16378605  0.56842971    -0.07300
C1590       C  0.22643187  0.17410104  0.58326993     0.13500
C1591       C  0.19660286  0.17824136  0.56842161    -0.24200
H1592       H  0.20847190  0.18767609  0.62489581     0.14800
H1593       H  0.30023194  0.16462099  0.57059196     0.14900
C1594       C  0.31257547  0.17794142  0.62641878    -0.24100
H1595       H  0.18926859  0.20140381  0.57155774     0.05100
H1596       H  0.17986942  0.16299639  0.57864050     0.08300
H1597       H  0.19706754  0.17453125  0.54425904     0.08300
H1598       H  0.31369379  0.16273727  0.64588886     0.08300
H1599       H  0.31746910  0.20103207  0.63333419     0.08300
H1600       H  0.33035066  0.17151903  0.61080987     0.05100
C1601       C  0.53157598  0.33864647  0.57393884    -0.20800
C1602       C  0.50673190  0.35020119  0.55917819    -0.07300
C1603       C  0.48253020  0.33114277  0.55237084     0.13600
C1604       C  0.48230720  0.30198287  0.56349648    -0.20800
C1605       C  0.50515689  0.29173641  0.58212110    -0.07300
C1606       C  0.53087532  0.30974438  0.58600652     0.13500
C1607       C  0.55631630  0.29989063  0.60525626    -0.24200
H1608       H  0.55045257  0.35313932  0.57839522     0.14800
H1609       H  0.46271772  0.28810160  0.56025742     0.14900
C1610       C  0.45653516  0.34166555  0.53403101    -0.24100
H1611       H  0.57490024  0.31634891  0.60519362     0.05100
H1612       H  0.56508280  0.27859016  0.59714848     0.08300
H1613       H  0.54852636  0.29734687  0.62839422     0.08300
H1614       H  0.46460257  0.35039732  0.51237585     0.08300
H1615       H  0.44449985  0.35932181  0.54576180     0.08300
H1616       H  0.44035672  0.32341734  0.52964375    -0.02900
C1617       C  0.49050711  0.13044656  0.60935446    -0.20800
C1618       C  0.48431612  0.12532936  0.57945083    -0.07300
C1619       C  0.48143969  0.14986403  0.55981047     0.13600
C1620       C  0.48436169  0.17892115  0.57081322    -0.20800
C1621       C  0.49003184  0.18394302  0.60091483    -0.07300
C1622       C  0.49343659  0.15920804  0.62035184     0.13500
C1623       C  0.50101355  0.16204329  0.65276318    -0.24200
H1624       H  0.49325207  0.11172362  0.62436243     0.14800
H1625       H  0.48151898  0.19777513  0.55603646     0.14900
C1626       C  0.47602832  0.14549791  0.52719924    -0.24100
H1627       H  0.52125707  0.14905960  0.65787806     0.05100
H1628       H  0.48233695  0.15320360  0.66638457     0.08300
H1629       H  0.50594365  0.18508751  0.65925955     0.08300
H1630       H  0.45430840  0.13410141  0.52370508     0.08300
H1631       H  0.49406629  0.13195116  0.51776236     0.08300
H1632       H  0.47554075  0.16695781  0.51492560     0.05100
C1633       C  0.42785670  0.28216105  0.66783449    -0.20800
C1634       C  0.44466582  0.25585208  0.66986955    -0.07300
C1635       C  0.43298923  0.23264705  0.68824621     0.13600
C1636       C  0.40331610  0.23364819  0.69769462    -0.20800
C1637       C  0.38536162  0.25807839  0.69140905    -0.07300
C1638       C  0.39827087  0.28331775  0.67766282     0.13500
C1639       C  0.38056886  0.31097450  0.67175419    -0.24200
H1640       H  0.43713524  0.30201885  0.65809316     0.14800
H1641       H  0.39408462  0.21505651  0.71015250     0.14900
C1642       C  0.45057036  0.20605974  0.69801449    -0.24100
H1643       H  0.39362879  0.32794279  0.65919155     0.05100
H1644       H  0.37384663  0.32101784  0.69298516     0.08300
H1645       H  0.36043378  0.30541761  0.65846825     0.08300
H1646       H  0.47413063  0.20749292  0.69159984     0.08300
H1647       H  0.44051944  0.18563576  0.68857899     0.08300
H1648       H  0.45009700  0.20423390  0.72256155     0.05100
C1649       C  0.25256886  0.81084924  0.93853564    -0.20800
C1650       C  0.25352495  0.84209671  0.94011225    -0.07300
C1651       C  0.25533512  0.85861424  0.91275488     0.13600
C1652       C  0.25331543  0.84372269  0.88575774    -0.20800
C1653       C  0.25117279  0.81296321  0.88452387    -0.07300
C1654       C  0.25175701  0.79616885  0.91105539     0.13500
C1655       C  0.25061719  0.76282454  0.91032169    -0.24200
H1656       H  0.25206713  0.79760350  0.95856181     0.14800
H1657       H  0.25345164  0.85626595  0.86511457     0.14900
C1658       C  0.25932550  0.89206449  0.91085989    -0.24100
H1659       H  0.25089750  0.75294089  0.93296303     0.05100
H1660       H  0.27019432  0.75451542  0.89815930     0.08300
H1661       H  0.22996733  0.75530001  0.89897046     0.08300
H1662       H  0.28064320  0.89907976  0.92106065     0.08300
H1663       H  0.24067483  0.90384251  0.92115060     0.08300
H1664       H  0.26019817  0.90013706  0.88753908     0.05100
C1665       C  0.31838015  0.92902444  0.98352389    -0.20800
C1666       C  0.30342917  0.91459850  0.00709927    -0.07300
C1667       C  0.31791666  0.91312052  0.03507479     0.13600
C1668       C  0.34707384  0.92474122  0.03814813    -0.20800
C1669       C  0.36262388  0.93652996  0.01375000    -0.07300
C1670       C  0.34786559  0.93924402  0.98627543     0.13500
C1671       C  0.36329948  0.95274534  0.95968653    -0.24200
H1672       H  0.30746285  0.93063818  0.96212201     0.14800
H1673       H  0.35837394  0.92328654  0.05936696     0.14900
C1674       C  0.30402346  0.89751766  0.06121505    -0.24100
H1675       H  0.34840450  0.95361471  0.94002385     0.05100
H1676       H  0.38292649  0.93933478  0.95384740     0.08300
H1677       H  0.37069688  0.97571262  0.96472211     0.08300
H1678       H  0.29981870  0.87408470  0.05551489     0.08300
H1679       H  0.28307857  0.90843868  0.06749246     0.08300
H1680       H  0.31888186  0.89778454  0.08093101     0.05100
C1681       C  0.16631266  0.89260275  0.99511829    -0.20800
C1682       C  0.19182389  0.91090569  0.99728026    -0.07300
C1683       C  0.18815374  0.94177224  0.00022841     0.13600
C1684       C  0.15913176  0.95356835  0.00020925    -0.20800
C1685       C  0.13383189  0.93502202  0.99781466    -0.07300
C1686       C  0.13756356  0.90415686  0.99572195     0.13500
C1687       C  0.11115460  0.88334332  0.99348389    -0.24200
H1688       H  0.16896959  0.86889655  0.99270687     0.14800
H1689       H  0.15615558  0.97725660  0.00227161     0.14900
C1690       C  0.21472841  0.96221373  0.00253897    -0.24100
H1691       H  0.11805492  0.85991133  0.99134045     0.05100
H1692       H  0.09757278  0.88925684  0.97373913     0.08300
H1693       H  0.09726992  0.88491661  0.01367073     0.08300
H1694       H  0.22911565  0.95976572  0.98281531     0.08300
H1695       H  0.22768864  0.95672896  0.02279748     0.08300
H1696       H  0.20801842  0.98576622  0.00387541     0.05100
C1697       C  0.26306297  0.82870077  0.06697378    -0.20800
C1698       C  0.24173404  0.84844575  0.05565821    -0.07300
C1699       C  0.21912280  0.85828073  0.07497873     0.13600
C1700       C  0.21949979  0.84966987  0.10502123    -0.20800
C1701       C  0.24151591  0.83112635  0.11644028    -0.07300
C1702       C  0.26321003  0.81997219  0.09708480     0.13500
C1703       C  0.28619585  0.79849282  0.10816685    -0.24200
H1704       H  0.28011575  0.82059913  0.05232153     0.14800
H1705       H  0.20197781  0.85683779  0.11963986     0.14900
C1706       C  0.19312591  0.87593016  0.06392979    -0.24100
H1707       H  0.30153410  0.79184817  0.09025213     0.05100
H1708       H  0.27503748  0.77816146  0.11701864     0.08300
H1709       H  0.29960134  0.80886562  0.12605672     0.08300
H1710       H  0.18204857  0.86373657  0.04571304     0.08300
H1711       H  0.20041584  0.89823062  0.05642525     0.08300
H1712       H  0.17629195  0.87916384  0.08149877     0.05100
C1713       C  0.30459694  0.92537042  0.23273487    -0.20800
C1714       C  0.31704763  0.90201720  0.24952244    -0.07300
C1715       C  0.33875877  0.90929313  0.27145734     0.13600
C1716       C  0.34890611  0.93880407  0.27392844    -0.20800
C1717       C  0.33878556  0.96108049  0.25475963    -0.07300
C1718       C  0.31537461  0.95460176  0.23491531     0.13500
C1719       C  0.30267593  0.97845622  0.21508427    -0.24200
H1720       H  0.28721078  0.92068104  0.21675314     0.14800
H1721       H  0.36678392  0.94398344  0.28908631     0.14900
C1722       C  0.35249623  0.88636022  0.29168869    -0.24100
H1723       H  0.28393211  0.96992106  0.20139534     0.05100
H1724       H  0.31997995  0.98735144  0.19980928     0.08300
H1725       H  0.29429696  0.99678823  0.22884651     0.08300
H1726       H  0.36472514  0.86990104  0.27846298     0.08300
H1727       H  0.33493355  0.87512288  0.30506049     0.08300
H1728       H  0.36870617  0.89640919  0.30739909     0.05100
C1729       C  0.15284578  0.62158934  0.26151167    -0.20800
C1730       C  0.18357557  0.62552928  0.26353081    -0.07300
C1731       C  0.20209882  0.60040461  0.26222899     0.13600
C1732       C  0.18925240  0.57202455  0.25896947    -0.20800
C1733       C  0.15821576  0.56768539  0.25740018    -0.07300
C1734       C  0.13975289  0.59337526  0.25887692     0.13500
C1735       C  0.10604944  0.59220265  0.25776637    -0.24200
H1736       H  0.13883445  0.64092304  0.26253689     0.14800
H1737       H  0.20390374  0.55337119  0.25843855     0.14900
C1738       C  0.23554865  0.60324589  0.26368874    -0.24100
H1739       H  0.09621127  0.61427155  0.26168313     0.05100
H1740       H  0.09676454  0.57722467  0.27504066     0.08300
H1741       H  0.09814361  0.58551190  0.23558610     0.08300
H1742       H  0.24256064  0.61145798  0.28575383     0.08300
H1743       H  0.24356359  0.61876309  0.24611424     0.08300
H1744       H  0.24653675  0.58162586  0.26039224     0.05100
C1745       C  0.07958234  0.77249372  0.14647302    -0.20800
C1746       C  0.05553067  0.76034600  0.16230498    -0.07300
C1747       C  0.06064348  0.74725307  0.19025731     0.13600
C1748       C  0.08994753  0.74476467  0.20088224    -0.20800
C1749       C  0.11454256  0.75520359  0.18424889    -0.07300
C1750       C  0.10891714  0.77073570  0.15723170     0.13500
C1751       C  0.13340824  0.78463164  0.13880157    -0.24200
H1752       H  0.07563835  0.78158575  0.12453489     0.14800
H1753       H  0.09359870  0.73391688  0.22208941     0.14900
C1754       C  0.03512847  0.73500610  0.20834789    -0.24100
H1755       H  0.12464302  0.79540803  0.11836937     0.05100
H1756       H  0.14933569  0.76745932  0.13193011     0.08300
H1757       H  0.14511807  0.80209206  0.15170692     0.08300
H1758       H  0.02352163  0.71705375  0.19611124     0.08300
H1759       H  0.01912009  0.75296708  0.21280551     0.08300
H1760       H  0.04279518  0.72577559  0.22993233     0.05100
C1761       C  0.99846665  0.69175643  0.06364274    -0.20800
C1762       C  0.99756148  0.69563965  0.09455903    -0.07300
C1763       C  0.99387357  0.66960128  0.11286274     0.13600
C1764       C  0.99121181  0.64159154  0.09975856    -0.20800
C1765       C  0.99174368  0.63805266  0.06908766    -0.07300
C1766       C  0.99562927  0.66350805  0.05076187     0.13500
C1767       C  0.99784287  0.66105158  0.01756103    -0.24200
H1768       H  0.00128723  0.71067106  0.04907648     0.14800
H1769       H  0.98838776  0.62203629  0.11371392     0.14900
C1770       C  0.99268642  0.67021191  0.14644387    -0.24100
H1771       H  0.00278222  0.68282021  0.00682379     0.05100
H1772       H  0.97647272  0.65275380  0.00828171     0.08300
H1773       H  0.01600245  0.64570523  0.01178548     0.08300
H1774       H  0.97404347  0.68373807  0.15431400     0.08300
H1775       H  0.01392057  0.67839262  0.15591828     0.08300
H1776       H  0.98906991  0.64772693  0.15614154     0.05100
C1777       C  0.03028525  0.83107469  0.10418431    -0.20800
C1778       C  0.00893569  0.81179367  0.09168800    -0.07300
C1779       C  0.98845510  0.82341910  0.07076898     0.13600
C1780       C  0.98880552  0.85407279  0.06443958    -0.20800
C1781       C  0.00986259  0.87323765  0.07737509    -0.07300
C1782       C  0.03150564  0.86141850  0.09668547     0.13500
C1783       C  0.05521161  0.88095605  0.11020594    -0.24200
H1784       H  0.04572369  0.82253945  0.12049015     0.14800
H1785       H  0.97257037  0.86319925  0.04915877     0.14900
C1786       C  0.96521409  0.80408991  0.05610380    -0.24100
H1787       H  0.06999356  0.86827026  0.12535419     0.05100
H1788       H  0.04472749  0.89883937  0.12305901     0.08300
H1789       H  0.06923392  0.89099902  0.09244986     0.08300
H1790       H  0.95184883  0.79183659  0.07295383     0.08300
H1791       H  0.97607987  0.78807960  0.04132868     0.08300
H1792       H  0.94969068  0.81734353  0.04227429     0.05100
C1793       C  0.20675131  0.65665559  0.56618646    -0.20800
C1794       C  0.23372898  0.66513175  0.55270084    -0.07300
C1795       C  0.25331148  0.68445562  0.56798209     0.13600
C1796       C  0.24768448  0.69117204  0.59754734    -0.20800
C1797       C  0.22264743  0.67966528  0.61229378    -0.07300
C1798       C  0.20100888  0.66362321  0.59603577     0.13500
C1799       C  0.17308702  0.65210009  0.61061805    -0.24200
H1800       H  0.19137944  0.64240935  0.55426717     0.14800
H1801       H  0.26373982  0.70460596  0.60961684     0.14900
C1802       C  0.28110808  0.69725991  0.55413723    -0.24100
H1803       H  0.15896660  0.63929400  0.59493681     0.05100
H1804       H  0.15989984  0.67094498  0.61878590     0.08300
H1805       H  0.17889955  0.63731265  0.62952739     0.08300
H1806       H  0.28310986  0.69132496  0.53058759     0.08300
H1807       H  0.30098275  0.68908630  0.56622862     0.08300
H1808       H  0.28068946  0.72183509  0.55528594     0.05100
C1809       C  0.30791636  0.56256972  0.51584035    -0.20800
C1810       C  0.30648109  0.59375828  0.51251183    -0.07300
C1811       C  0.33372185  0.61039903  0.51472917     0.13600
C1812       C  0.36061424  0.59557821  0.51798389    -0.20800
C1813       C  0.36180440  0.56478726  0.51982454    -0.07300
C1814       C  0.33524698  0.54797269  0.51936137     0.13500
C1815       C  0.33585961  0.51463341  0.52133508    -0.24200
H1816       H  0.28797278  0.54907330  0.51543356     0.14800
H1817       H  0.38126403  0.60834212  0.51839743     0.14900
C1818       C  0.33645492  0.64383627  0.51331580    -0.24100
H1819       H  0.31315088  0.50471510  0.52017888     0.05100
H1820       H  0.34612877  0.50766572  0.54266093     0.08300
H1821       H  0.34905829  0.50577801  0.50274788     0.08300
H1822       H  0.31534442  0.65558706  0.51121433     0.08300
H1823       H  0.35041618  0.65050320  0.49405640     0.08300
H1824       H  0.34738350  0.65191518  0.53385639     0.05100
C1825       C  0.14938331  0.56661735  0.51323715    -0.20800
C1826       C  0.13375903  0.57241553  0.48689227    -0.07300
C1827       C  0.14734091  0.58984913  0.46449562     0.13600
C1828       C  0.17626222  0.60123593  0.46902339    -0.20800
C1829       C  0.19230479  0.59478232  0.49501356    -0.07300
C1830       C  0.17861247  0.57730536  0.51749576     0.13500
C1831       C  0.19435357  0.57038359  0.54626700    -0.24200
H1832       H  0.13874480  0.55330275  0.53042626     0.14800
H1833       H  0.18648156  0.61506204  0.45205395     0.14900
C1834       C  0.13114249  0.59673205  0.43603586    -0.24100
H1835       H  0.17963621  0.55811545  0.56198103     0.05100
H1836       H  0.20176222  0.59115962  0.55708473     0.08300
H1837       H  0.21394320  0.55636386  0.54217386     0.08300
H1838       H  0.11026768  0.60859297  0.44092531     0.08300
H1839       H  0.12564570  0.57582355  0.42436475     0.08300
H1840       H  0.14479834  0.61092158  0.42095820     0.05100
C1841       C  0.26775589  0.70406918  0.41479579    -0.20800
C1842       C  0.25663297  0.68988315  0.38934754    -0.07300
C1843       C  0.24100921  0.66238809  0.39303007     0.13600
C1844       C  0.23853800  0.64956469  0.42147246    -0.20800
C1845       C  0.25064539  0.66337880  0.44642980    -0.07300
C1846       C  0.26510437  0.69110750  0.44309066     0.13500
C1847       C  0.27849145  0.70671830  0.46928346    -0.24200
H1848       H  0.27925098  0.72522591  0.41259414     0.14800
H1849       H  0.22838744  0.62779704  0.42406617     0.14900
C1850       C  0.22751763  0.64563350  0.36741421    -0.24100
H1851       H  0.28847980  0.72852218  0.46297226     0.05100
H1852       H  0.29633384  0.69297466  0.47909406     0.08300
H1853       H  0.26094919  0.71057368  0.48597085     0.08300
H1854       H  0.24506105  0.63989870  0.35129728     0.08300
H1855       H  0.21014675  0.65921361  0.35643525     0.08300
H1856       H  0.21665620  0.62455846  0.37473962     0.05100
C1857       C  0.57698858  0.52132006  0.18399868    -0.20800
C1858       C  0.59724984  0.50030462  0.19491942    -0.07300
C1859       C  0.60871108  0.47920944  0.17487839     0.13600
C1860       C  0.60095992  0.48078161  0.14477824    -0.20800
C1861       C  0.58189699  0.50260100  0.13393648    -0.07300
C1862       C  0.56949323  0.52296922  0.15378879     0.13500
C1863       C  0.54797522  0.54619835  0.14325262    -0.24200
H1864       H  0.56787685  0.53743742  0.19896171     0.14800
H1865       H  0.60977714  0.46465056  0.12960021     0.14900
C1866       C  0.62799175  0.45380305  0.18416364    -0.24100
H1867       H  0.53975010  0.55975668  0.16182700     0.05100
H1868       H  0.52848420  0.53537547  0.13250704     0.08300
H1869       H  0.55907021  0.56139530  0.12713685     0.08300
H1870       H  0.62969005  0.45177246  0.20824460     0.08300
H1871       H  0.65057703  0.45668117  0.17459674     0.08300
H1872       H  0.61808754  0.43263988  0.17623793     0.05100
C1873       C  0.59492401  0.53804839  0.32964906    -0.20800
C1874       C  0.58531622  0.51771042  0.30768344    -0.07300
C1875       C  0.56219940  0.49718889  0.31571856     0.13600
C1876       C  0.55175320  0.49615573  0.34504112    -0.20800
C1877       C  0.56251558  0.51571167  0.36646940    -0.07300
C1878       C  0.58347364  0.53761256  0.35847433     0.13500
C1879       C  0.59537957  0.55930217  0.38094521    -0.24200
H1880       H  0.61312522  0.55324564  0.32577511     0.14800
H1881       H  0.53509048  0.47974174  0.35146517     0.14900
C1882       C  0.54823695  0.47587119  0.29411305    -0.24100
H1883       H  0.61243560  0.57455342  0.37130278     0.05100
H1884       H  0.60574968  0.54710915  0.39974550     0.08300
H1885       H  0.57697101  0.57301702  0.38934042     0.08300
H1886       H  0.56536149  0.46280099  0.28297900     0.08300
H1887       H  0.53486049  0.48822601  0.27754956     0.08300
H1888       H  0.53279924  0.45989595  0.30520956     0.05100
C1889       C  0.68827324  0.45052387  0.25258084    -0.20800
C1890       C  0.65764255  0.45105968  0.25847968    -0.07300
C1891       C  0.64134010  0.42384299  0.25945484     0.13600
C1892       C  0.65604111  0.39718291  0.25462594    -0.20800
C1893       C  0.68661161  0.39662538  0.24950296    -0.07300
C1894       C  0.70306037  0.42349796  0.24849192     0.13500
C1895       C  0.73592644  0.42364407  0.24231036    -0.24200
H1896       H  0.70062158  0.47128292  0.25123881     0.14800
H1897       H  0.64361593  0.37641556  0.25523978     0.14900
C1898       C  0.60818412  0.42245740  0.26418661    -0.24100
H1899       H  0.74531273  0.44653478  0.24164848     0.05100
H1900       H  0.74007297  0.41324326  0.22055319     0.08300
H1901       H  0.74772444  0.41101387  0.25990768     0.08300
H1902       H  0.59676013  0.43743239  0.24827355     0.08300
H1903       H  0.60301113  0.42854936  0.28726543     0.08300
H1904       H  0.59898579  0.39976593  0.26084406     0.05100
C1905       C  0.76836415  0.37506391  0.40453754    -0.20800
C1906       C  0.76771804  0.35320353  0.42697892    -0.07300
C1907       C  0.77543622  0.32390144  0.42017959     0.13600
C1908       C  0.78122000  0.31667256  0.39050720    -0.20800
C1909       C  0.77886339  0.33812658  0.36779101    -0.07300
C1910       C  0.77381940  0.36793055  0.37506699     0.13500
C1911       C  0.77367390  0.39221027  0.35180488    -0.24200
H1912       H  0.76290521  0.39770548  0.40995857     0.14800
H1913       H  0.78535857  0.29383528  0.38475898     0.14900
C1914       C  0.77556961  0.30005049  0.44373989    -0.24100
H1915       H  0.77093424  0.41441268  0.36177772     0.05100
H1916       H  0.75504801  0.38879392  0.33598645     0.08300
H1917       H  0.79507903  0.39235752  0.33961590     0.08300
H1918       H  0.75324272  0.29809650  0.45405222     0.08300
H1919       H  0.79225724  0.30566669  0.46101955     0.08300
H1920       H  0.78132899  0.27815029  0.43448766     0.05100
C1921       C  0.68177821  0.43401169  0.48211612    -0.20800
C1922       C  0.68751273  0.40338994  0.48077626    -0.07300
C1923       C  0.66264077  0.38332175  0.47807437     0.13600
C1924       C  0.63374339  0.39435241  0.47913355    -0.20800
C1925       C  0.62849321  0.42455805  0.48143841    -0.07300
C1926       C  0.65259212  0.44478159  0.48227325     0.13500
C1927       C  0.64751612  0.47764916  0.48436314    -0.24200
H1928       H  0.69983364  0.44994977  0.48324950     0.14800
H1929       H  0.61481246  0.37920783  0.47810051     0.14900
C1930       C  0.66544601  0.35010819  0.47397762    -0.24100
H1931       H  0.66879661  0.49038592  0.48547636     0.05100
H1932       H  0.63455606  0.48242727  0.50459515     0.08300
H1933       H  0.63504317  0.48551357  0.46458436     0.08300
H1934       H  0.67675337  0.33938438  0.49296462     0.08300
H1935       H  0.67721529  0.34514164  0.45317476     0.08300
H1936       H  0.64334456  0.33896360  0.47219526     0.05100
C1937       C  0.80440788  0.43459833  0.51796338    -0.20800
C1938       C  0.80242463  0.41499367  0.49402517    -0.07300
C1939       C  0.82841819  0.40942157  0.47754369     0.13600
C1940       C  0.85577683  0.42101998  0.48713071    -0.20800
C1941       C  0.85830305  0.43907911  0.51223291    -0.07300
C1942       C  0.83188799  0.44659393  0.52743890     0.13500
C1943       C  0.83215373  0.46672723  0.55385499    -0.24200
H1944       H  0.78439056  0.43974317  0.53005859     0.14800
H1945       H  0.87541790  0.41626842  0.47428520     0.14900
C1946       C  0.82760299  0.39344309  0.44843845    -0.24100
H1947       H  0.80958003  0.46922715  0.56335502     0.05100
H1948       H  0.84020797  0.48918448  0.54719501     0.08300
H1949       H  0.84668712  0.45745317  0.57149729     0.08300
H1950       H  0.81163929  0.40461194  0.43343615     0.08300
H1951       H  0.82163033  0.36980919  0.45148448     0.08300
H1952       H  0.84955738  0.39404431  0.43723773     0.05100
C1953       C  0.31017954  0.55570873  0.74049272    -0.20800
C1954       C  0.34138778  0.55421138  0.73718338    -0.07300
C1955       C  0.35716149  0.58108418  0.72971504     0.13600
C1956       C  0.34184703  0.60794593  0.72838687    -0.20800
C1957       C  0.31135000  0.60918906  0.73337720    -0.07300
C1958       C  0.29510618  0.58283584  0.73876600     0.13500
C1959       C  0.26203270  0.58355331  0.74391350    -0.24200
H1960       H  0.29711204  0.53602665  0.74544283     0.14800
H1961       H  0.35394100  0.62852580  0.72404037     0.14900
C1962       C  0.39027471  0.58256968  0.72351244    -0.24100
H1963       H  0.25257245  0.56103117  0.74813924     0.05100
H1964       H  0.25077429  0.59303236  0.72410772     0.08300
H1965       H  0.25720239  0.59746476  0.76340580     0.08300
H1966       H  0.39574309  0.56969760  0.70359834     0.08300
H1967       H  0.40349546  0.57468112  0.74266012     0.08300
H1968       H  0.39802483  0.60562604  0.71886010     0.05100
C1969       C  0.34707460  0.39176067  0.78673203    -0.20800
C1970       C  0.32356702  0.38270864  0.76857707    -0.07300
C1971       C  0.31020534  0.40341898  0.74925226     0.13600
C1972       C  0.32132787  0.43260109  0.74790516    -0.20800
C1973       C  0.34595320  0.44178479  0.76504321    -0.07300
C1974       C  0.35848094  0.42088333  0.78538711     0.13500
C1975       C  0.38321892  0.42777975  0.80678385    -0.24200
H1976       H  0.35702571  0.37575590  0.80177474     0.14800
H1977       H  0.31138828  0.44797421  0.73228369     0.14900
C1978       C  0.28413293  0.39472769  0.72998168    -0.24100
H1979       H  0.37583271  0.42254791  0.82972995     0.05100
H1980       H  0.38990873  0.45107930  0.80640338     0.08300
H1981       H  0.40291969  0.41419532  0.80162561     0.08300
H1982       H  0.26562528  0.38625509  0.74406436     0.08300
H1983       H  0.29075987  0.37721628  0.71435092     0.08300
H1984       H  0.27581381  0.41380977  0.71673498     0.05100
C1985       C  0.44090621  0.50588200  0.81084793    -0.20800
C1986       C  0.40993800  0.50456238  0.80700773    -0.07300
C1987       C  0.39133293  0.50387328  0.83246396     0.13600
C1988       C  0.40424198  0.50364410  0.86074654    -0.20800
C1989       C  0.43503127  0.50557587  0.86458771    -0.07300
C1990       C  0.45368917  0.50688038  0.83942538     0.13500
C1991       C  0.48699061  0.50886323  0.84273567    -0.24200
H1992       H  0.45504395  0.50685799  0.79146161     0.14800
H1993       H  0.39013380  0.50264906  0.88017160     0.14900
C1994       C  0.35776835  0.50308975  0.83033760    -0.24100
H1995       H  0.49829145  0.50903368  0.82089431     0.05100
H1996       H  0.49507959  0.48953056  0.85574790     0.08300
H1997       H  0.49330781  0.52960245  0.85432413     0.08300
H1998       H  0.35008920  0.48348902  0.81781601     0.08300
H1999       H  0.34946486  0.52353833  0.81949412     0.08300
H2000       H  0.34725350  0.50165730  0.85253812     0.05100
C2001       C  0.43699635  0.49254468  0.68877970    -0.20800
C2002       C  0.41080333  0.47832215  0.69839903    -0.07300
C2003       C  0.39625344  0.45814097  0.67918378     0.13600
C2004       C  0.40663630  0.45476265  0.64999884    -0.20800
C2005       C  0.43112260  0.47128768  0.63961205    -0.07300
C2006       C  0.44735603  0.48919217  0.65964946     0.13500
C2007       C  0.47502609  0.50569767  0.64987718    -0.24200
H2008       H  0.44804037  0.50817456  0.70334757     0.14800
H2009       H  0.39442179  0.44077069  0.63470359     0.14900
C2010       C  0.36864288  0.44162481  0.68884037    -0.24100
H2011       H  0.48531867  0.51831212  0.66833268     0.05100
H2012       H  0.46958241  0.52162568  0.63181615     0.08300
H2013       H  0.49161594  0.48968899  0.64174018     0.08300
H2014       H  0.35092979  0.45758312  0.69417303     0.08300
H2015       H  0.37378341  0.42782499  0.70867603     0.08300
H2016       H  0.36003152  0.42672602  0.67127704     0.05100
C2017       C  0.76853415  0.18724326  0.05553680    -0.20800
C2018       C  0.74664657  0.16660199  0.04671018    -0.07300
C2019       C  0.72397884  0.15842588  0.06715559     0.13600
C2020       C  0.72450130  0.17036817  0.09588388    -0.20800
C2021       C  0.74734195  0.18969348  0.10489670    -0.07300
C2022       C  0.76950574  0.19842511  0.08436474     0.13500
C2023       C  0.79406261  0.21993767  0.09259797    -0.24200
H2024       H  0.78571778  0.19395575  0.03998022     0.14800
H2025       H  0.70738807  0.16404034  0.11166258     0.14900
C2026       C  0.69837267  0.13837697  0.05879028    -0.24100
H2027       H  0.80858591  0.22545099  0.07341415     0.05100
H2028       H  0.80833603  0.21018677  0.11019261     0.08300
H2029       H  0.78434196  0.24086717  0.10061560     0.08300
H2030       H  0.70602045  0.11564195  0.05451138     0.08300
H2031       H  0.68713178  0.14748818  0.03897593     0.08300
H2032       H  0.68158890  0.13665054  0.07672186     0.05100
C2033       C  0.69612545  0.07098196  0.98569717    -0.20800
C2034       C  0.69598559  0.10208744  0.98563652    -0.07300
C2035       C  0.66834138  0.11682490  0.98341457     0.13600
C2036       C  0.64192089  0.10016644  0.98156036    -0.20800
C2037       C  0.64183418  0.06905253  0.98122787    -0.07300
C2038       C  0.66947110  0.05424754  0.98305995     0.13500
C2039       C  0.67113146  0.02094722  0.98244370    -0.24200
H2040       H  0.71729523  0.05977018  0.98669103     0.14800
H2041       H  0.62101217  0.11182649  0.97995561     0.14900
C2042       C  0.66547752  0.15015781  0.98278129    -0.24100
H2043       H  0.69434078  0.01317892  0.98515512     0.05100
H2044       H  0.66273668  0.01269362  0.96085050     0.08300
H2045       H  0.65763972  0.01119413  0.00071442     0.08300
H2046       H  0.65640974  0.15734890  0.96097691     0.08300
H2047       H  0.68672907  0.16213188  0.98669096     0.08300
H2048       H  0.64986326  0.15702756  0.00035415     0.05100
C2049       C  0.84804902  0.08889744  0.03309382    -0.20800
C2050       C  0.86111754  0.07313278  0.01004505    -0.07300
C2051       C  0.84370012  0.06583898  0.98491250     0.13600
C2052       C  0.81497310  0.07734726  0.98197217    -0.20800
C2053       C  0.80324755  0.09638010  0.00323508    -0.07300
C2054       C  0.81942230  0.10096446  0.02983040     0.13500
C2055       C  0.80800080  0.12077585  0.05359930    -0.24200
H2056       H  0.86116456  0.09382262  0.05265250     0.14800
H2057       H  0.80245665  0.07339656  0.96179751     0.14900
C2058       C  0.85542799  0.04623461  0.96087062    -0.24100
H2059       H  0.82325396  0.12164114  0.07298633     0.05100
H2060       H  0.78600597  0.11261946  0.06149689     0.08300
H2061       H  0.80621692  0.14351253  0.04446429     0.08300
H2062       H  0.86264411  0.02479432  0.97066880     0.08300
H2063       H  0.87447015  0.05716335  0.94944033     0.08300
H2064       H  0.83819013  0.04140937  0.94384240     0.05100
C2065       C  0.16016658  0.92138090  0.78819121    -0.20800
C2066       C  0.15672077  0.93624764  0.76070292    -0.07300
C2067       C  0.16585818  0.92096845  0.73496498     0.13600
C2068       C  0.17036553  0.89022734  0.73655971    -0.20800
C2069       C  0.16939743  0.87461633  0.76363394    -0.07300
C2070       C  0.16649156  0.89095261  0.79003273     0.13500
C2071       C  0.16909769  0.87654277  0.82023232    -0.24200
H2072       H  0.15782913  0.93338004  0.80860462     0.14800
H2073       H  0.17548049  0.87844862  0.71642616     0.14900
C2074       C  0.17171190  0.93615090  0.70557631    -0.24100
H2075       H  0.16478266  0.89243192  0.83829355     0.05100
H2076       H  0.19197584  0.86807628  0.82358362     0.08300
H2077       H  0.15272846  0.85803982  0.82233818     0.08300
H2078       H  0.16988641  0.96055953  0.70653815     0.08300
H2079       H  0.15598743  0.92757149  0.68860350     0.08300
H2080       H  0.19475880  0.93138873  0.69842698     0.05100
C2081       C  0.19100729  0.09001778  0.77237641    -0.20800
C2082       C  0.17706706  0.11129752  0.75443375    -0.07300
C2083       C  0.15432567  0.10225739  0.73484788     0.13600
C2084       C  0.14561120  0.07223044  0.73410418    -0.20800
C2085       C  0.15922607  0.05063189  0.75221891    -0.07300
C2086       C  0.18266978  0.05980950  0.77143410     0.13500
C2087       C  0.19818009  0.03856308  0.79218948    -0.24200
H2088       H  0.20859991  0.09715835  0.78726734     0.14800
H2089       H  0.12743502  0.06580315  0.71969048     0.14900
C2090       C  0.13843064  0.12449377  0.71555092    -0.24100
H2091       H  0.21322445  0.05036322  0.80780601     0.05100
H2092       H  0.21219949  0.02328890  0.77942305     0.08300
H2093       H  0.18172781  0.02579048  0.80560431     0.08300
H2094       H  0.15446728  0.13548213  0.70022935     0.08300
H2095       H  0.12799887  0.14149941  0.72962083     0.08300
H2096       H  0.12066591  0.11387303  0.70202112     0.05100
C2097       C  0.05344538  0.99053608  0.66215347    -0.20800
C2098       C  0.07045525  0.00660259  0.64112917    -0.07300
C2099       C  0.09747756  0.02022111  0.65048265     0.13600
C2100       C  0.10661975  0.01724073  0.68020774    -0.20800
C2101       C  0.08968719  0.00105958  0.70095724    -0.07300
C2102       C  0.06288364  0.98737457  0.69176762     0.13500
C2103       C  0.04455912  0.96893983  0.71311283    -0.24200
H2104       H  0.03278150  0.97998204  0.65529662     0.14800
H2105       H  0.12806480  0.02614743  0.68690477     0.14900
C2106       C  0.11779246  0.03641277  0.62909532    -0.24100
H2107       H  0.02394561  0.96019127  0.70253974     0.05100
H2108       H  0.03812853  0.98265405  0.73225521     0.08300
H2109       H  0.05760587  0.94973435  0.72123091     0.08300
H2110       H  0.10673688  0.05649351  0.62023984     0.08300
H2111       H  0.12370907  0.02157425  0.61060399     0.08300
H2112       H  0.13880992  0.04377325  0.63991829     0.05100
C2113       C  0.06734409  0.98667757  0.82180327    -0.20800
C2114       C  0.08681399  0.00813531  0.80964675    -0.07300
C2115       C  0.09249749  0.03439366  0.82580130     0.13600
C2116       C  0.08121231  0.03690775  0.85478041    -0.20800
C2117       C  0.06498965  0.01360068  0.86809494    -0.07300
C2118       C  0.05663514  0.98889526  0.85081767     0.13500
C2119       C  0.03660978  0.96462114  0.86294602    -0.24200
H2120       H  0.06221730  0.96691916  0.80919607     0.14800
H2121       H  0.08675029  0.05627692  0.86779290     0.14900
C2122       C  0.11205307  0.05889031  0.81371226    -0.24100
H2123       H  0.03117369  0.94779155  0.84591325     0.05100
H2124       H  0.01541672  0.97426639  0.87060219     0.08300
H2125       H  0.04760534  0.95299579  0.88169764     0.08300
H2126       H  0.10242599  0.06796917  0.79291309     0.08300
H2127       H  0.13450924  0.05022318  0.80960569     0.08300
H2128       H  0.11439456  0.07748949  0.82949627     0.05100
C2129       C  0.42030559  0.74204817  0.35911450    -0.20800
C2130       C  0.44496254  0.75788167  0.34803645    -0.07300
C2131       C  0.43985233  0.78219874  0.32862080     0.13600
C2132       C  0.41062121  0.78840359  0.31913714    -0.20800
C2133       C  0.38583774  0.77173094  0.32919504    -0.07300
C2134       C  0.39098693  0.74865142  0.35038312     0.13500
C2135       C  0.36608969  0.73061720  0.36427342    -0.24200
H2136       H  0.42402426  0.72417789  0.37485662     0.14800
H2137       H  0.40719442  0.80662558  0.30370939     0.14900
C2138       C  0.46474638  0.80282222  0.31902901    -0.24100
H2139       H  0.37445815  0.71434040  0.38086802     0.05100
H2140       H  0.35395380  0.71788896  0.34705681     0.08300
H2141       H  0.35063462  0.74547718  0.37600000     0.08300
H2142       H  0.48032185  0.79130003  0.30428032     0.08300
H2143       H  0.47688974  0.81120419  0.33876984     0.08300
H2144       H  0.45625064  0.82230645  0.30651915     0.05100
C2145       C  0.46378194  0.67187887  0.40594813    -0.20800
C2146       C  0.48736717  0.69029794  0.41523089    -0.07300
C2147       C  0.50632582  0.68031758  0.43826890     0.13600
C2148       C  0.50313595  0.65131976  0.44930463    -0.20800
C2149       C  0.48104011  0.63212054  0.43845864    -0.07300
C2150       C  0.46026618  0.64286855  0.41749644     0.13500
C2151       C  0.43576402  0.62312618  0.40582502    -0.24200
H2152       H  0.44953385  0.67928790  0.38800976     0.14800
H2153       H  0.51877718  0.64325405  0.46580121     0.14900
C2154       C  0.53092658  0.69935444  0.45088716    -0.24100
H2155       H  0.42188740  0.63478021  0.38906758     0.05100
H2156       H  0.42108563  0.61587411  0.42432019     0.08300
H2157       H  0.44543749  0.60334277  0.39528649     0.08300
H2158       H  0.53129370  0.72197088  0.44119902     0.08300
H2159       H  0.55273893  0.68893022  0.44678669     0.08300
H2160       H  0.52778644  0.70147036  0.47515431     0.05100
C2161       C  0.47512280  0.81342753  0.40887015    -0.20800
C2162       C  0.50077820  0.79733531  0.41572600    -0.07300
C2163       C  0.52287156  0.81055352  0.43383434     0.13600
C2164       C  0.51992823  0.84012134  0.44238564    -0.20800
C2165       C  0.49514736  0.85711520  0.43403727    -0.07300
C2166       C  0.47188272  0.84302435  0.41769142     0.13500
C2167       C  0.44374288  0.85870818  0.40873558    -0.24200
H2168       H  0.45809081  0.80331386  0.39511825     0.14800
H2169       H  0.53751394  0.84992180  0.45569693     0.14900
C2170       C  0.54980775  0.79416857  0.44485392    -0.24100
H2171       H  0.42817724  0.84393755  0.39644949     0.05100
H2172       H  0.44912482  0.87781384  0.39393135     0.08300
H2173       H  0.43190725  0.86634675  0.42874578     0.08300
H2174       H  0.54925575  0.77046776  0.43902658     0.08300
H2175       H  0.55088421  0.79528715  0.46939220     0.08300
H2176       H  0.57026237  0.80457825  0.43548304     0.05100
C2177       C  0.87225113  0.59946751  0.98291147    -0.20800
C2178       C  0.87308271  0.56858812  0.98129908    -0.07300
C2179       C  0.84605412  0.55228444  0.97986590     0.13600
C2180       C  0.81897248  0.56739018  0.98073532    -0.20800
C2181       C  0.81788008  0.59847235  0.98345197    -0.07300
C2182       C  0.84541628  0.61470818  0.98376750     0.13500
C2183       C  0.84841440  0.64812943  0.98537899    -0.24200
H2184       H  0.89294247  0.61204221  0.98348398     0.14800
H2185       H  0.79896755  0.55432288  0.97942568     0.14900
C2186       C  0.84535389  0.51886586  0.97856096    -0.24100
H2187       H  0.86071369  0.65652489  0.96564678     0.05100
H2188       H  0.86125629  0.65413522  0.00555082     0.08300
H2189       H  0.82735491  0.66024166  0.98617750     0.08300
H2190       H  0.85782627  0.50943276  0.99767483     0.08300
H2191       H  0.85529352  0.51138964  0.95751075     0.08300
H2192       H  0.82229813  0.50978041  0.97947158     0.05100
C2193       C  0.68559354  0.61048270  0.01844908    -0.20800
C2194       C  0.70310551  0.60039025  0.99494965    -0.07300
C2195       C  0.69037880  0.58073375  0.97411095     0.13600
C2196       C  0.66074749  0.57135921  0.97770461    -0.20800
C2197       C  0.64351108  0.58104519  0.00147287    -0.07300
C2198       C  0.65599389  0.60088659  0.02209381     0.13500
C2199       C  0.63782662  0.61291674  0.04710014    -0.24200
H2200       H  0.69502939  0.62621702  0.03392845     0.14800
H2201       H  0.65080516  0.55642597  0.96169423     0.14900
C2202       C  0.70711493  0.57081729  0.94714808    -0.24100
H2203       H  0.65081272  0.62901283  0.06057107     0.05100
H2204       H  0.63044476  0.59452914  0.06195274     0.08300
H2205       H  0.61803568  0.62445221  0.03802469     0.08300
H2206       H  0.71584728  0.59039131  0.93470661     0.08300
H2207       H  0.69259861  0.55792444  0.93189984     0.08300
H2208       H  0.72570483  0.55622886  0.95369273     0.05100
C2209       C  0.76467111  0.69128542  0.05301540    -0.20800
C2210       C  0.75758780  0.66126748  0.04881430    -0.07300
C2211       C  0.75108699  0.64295206  0.07371534     0.13600
C2212       C  0.75165038  0.65516718  0.10197946    -0.20800
C2213       C  0.75960332  0.68488422  0.10643598    -0.07300
C2214       C  0.76599184  0.70334584  0.08163177     0.13500
C2215       C  0.77378676  0.73569275  0.08512741    -0.24200
H2216       H  0.77037204  0.70499758  0.03393728     0.14800
H2217       H  0.74660994  0.64099775  0.12093041     0.14900
C2218       C  0.74440053  0.61018058  0.07177920    -0.24100
H2219       H  0.77689071  0.74698984  0.06334407     0.05100
H2220       H  0.79487652  0.73809292  0.09777814     0.08300
H2221       H  0.75566478  0.74702214  0.09700525     0.08300
H2222       H  0.76122397  0.59768736  0.08475143     0.08300
H2223       H  0.74464260  0.60173795  0.04897483     0.08300
H2224       H  0.72204602  0.60537355  0.08118561     0.05100
C2225       C  0.79760057  0.91850026  0.26073183    -0.20800
C2226       C  0.81196028  0.89980700  0.24069488    -0.07300
C2227       C  0.83375942  0.91246940  0.22131954     0.13600
C2228       C  0.84177851  0.94251194  0.22413047    -0.20800
C2229       C  0.82935595  0.96010437  0.24605227    -0.07300
C2230       C  0.80601822  0.94838134  0.26365277     0.13500
C2231       C  0.79013965  0.96733996  0.28575808    -0.24200
H2232       H  0.78015390  0.90955691  0.27484517     0.14800
H2233       H  0.85950917  0.95173745  0.21057415     0.14900
C2234       C  0.85000030  0.89460659  0.19855684    -0.24100
H2235       H  0.77154882  0.95503131  0.29664375     0.05100
H2236       H  0.78077447  0.98700986  0.27425444     0.08300
H2237       H  0.80556538  0.97485048  0.30343909     0.08300
H2238       H  0.83401780  0.88583628  0.18192981     0.08300
H2239       H  0.86196859  0.87611280  0.20957295     0.08300
H2240       H  0.86680192  0.90819705  0.18633813     0.05100
C2241       C  0.61334946  0.73038013  0.34484407    -0.20800
C2242       C  0.61560212  0.73906218  0.31523765    -0.07300
C2243       C  0.58982099  0.74758982  0.29969671     0.13600
C2244       C  0.56202812  0.74651361  0.31403160    -0.20800
C2245       C  0.55928306  0.73807195  0.34416386    -0.07300
C2246       C  0.58600533  0.73028262  0.35980045     0.13500
C2247       C  0.58699665  0.72278137  0.39257026    -0.24200
H2248       H  0.63355276  0.72466013  0.35669845     0.14800
H2249       H  0.54291443  0.75390588  0.30166120     0.14900
C2250       C  0.59188057  0.75887395  0.26822775    -0.24100
H2251       H  0.61017146  0.72028999  0.40076674     0.05100
H2252       H  0.57574092  0.70135393  0.39727942     0.08300
H2253       H  0.57711311  0.74058185  0.40579406     0.08300
H2254       H  0.60140095  0.74152980  0.25398958     0.08300
H2255       H  0.60645127  0.77894610  0.26729962     0.08300
H2256       H  0.56974918  0.76491625  0.25914598     0.05100
C2257       C  0.67272254  0.60416387  0.21226199    -0.20800
C2258       C  0.68909324  0.61660609  0.23561943    -0.07300
C2259       C  0.69707009  0.59847237  0.26007130     0.13600
C2260       C  0.68581947  0.56935690  0.26196591    -0.20800
C2261       C  0.66618032  0.55813508  0.24045687    -0.07300
C2262       C  0.66062581  0.57531568  0.21467144     0.13500
C2263       C  0.63951792  0.56468015  0.19114607    -0.24200
H2264       H  0.66714575  0.61795367  0.19327380     0.14800
H2265       H  0.69017891  0.55615885  0.28170043     0.14900
C2266       C  0.71697813  0.60986052  0.28449675    -0.24100
H2267       H  0.63804859  0.58059900  0.17227542     0.05100
H2268       H  0.61705830  0.56233850  0.20090315     0.08300
H2269       H  0.64698740  0.54313075  0.18242734     0.08300
H2270       H  0.70604502  0.62808862  0.29642047     0.08300
H2271       H  0.73832112  0.61806314  0.27497491     0.08300
H2272       H  0.72211234  0.59221663  0.30103688     0.05100
C2273       C  0.93169867  0.74457299  0.17504790    -0.20800
C2274       C  0.94603063  0.76752148  0.15913898    -0.07300
C2275       C  0.93069918  0.79454645  0.15482076     0.13600
C2276       C  0.90034386  0.79615975  0.16266374    -0.20800
C2277       C  0.88512706  0.77142630  0.17459101    -0.07300
C2278       C  0.90153525  0.74592743  0.18241283     0.13500
C2279       C  0.88741222  0.71980800  0.19841209    -0.24200
H2280       H  0.94368163  0.72433993  0.17968257     0.14800
H2281       H  0.88810097  0.81623550  0.15806438     0.14900
C2282       C  0.94553767  0.82131117  0.14108093    -0.24100
H2283       H  0.90404780  0.70277318  0.20448917     0.05100
H2284       H  0.87050377  0.70892322  0.18410569     0.08300
H2285       H  0.87684462  0.72735044  0.21914167     0.08300
H2286       H  0.95313328  0.81597812  0.11863226     0.08300
H2287       H  0.96468261  0.82849361  0.15493305     0.08300
H2288       H  0.93012578  0.84029069  0.13912967     0.05100
C2289       C  0.81663643  0.89786729  0.51831482    -0.20800
C2290       C  0.79542086  0.91424790  0.50244116    -0.07300
C2291       C  0.80374484  0.94224974  0.49070986     0.13600
C2292       C  0.83321223  0.95266286  0.49412115    -0.20800
C2293       C  0.85471901  0.93611109  0.50962608    -0.07300
C2294       C  0.84579281  0.90875254  0.52293941     0.13500
C2295       C  0.86702395  0.89011779  0.54089047    -0.24200
H2296       H  0.81094012  0.87561117  0.52571291     0.14800
H2297       H  0.83956820  0.97384718  0.48430501     0.14900
C2298       C  0.78159927  0.96096894  0.47413768    -0.24100
H2299       H  0.85644451  0.86905185  0.54867780     0.05100
H2300       H  0.87434484  0.90242081  0.56087092     0.08300
H2301       H  0.88661655  0.88445779  0.52731502     0.08300
H2302       H  0.76262129  0.96583156  0.48885381     0.08300
H2303       H  0.77329267  0.94908150  0.45436779     0.08300
H2304       H  0.79157093  0.98237904  0.46658230     0.05100
C2305       C  0.66108166  0.88230642  0.51177611    -0.20800
C2306       C  0.68288275  0.90470298  0.50853624    -0.07300
C2307       C  0.67476220  0.93446712  0.51254768     0.13600
C2308       C  0.64465860  0.94125067  0.51772390    -0.20800
C2309       C  0.62255175  0.91886286  0.51839631    -0.07300
C2310       C  0.63110531  0.88897438  0.51662417     0.13500
C2311       C  0.60859016  0.86408150  0.51947288    -0.24200
H2312       H  0.66725494  0.85949647  0.50855306     0.14800
H2313       H  0.63809092  0.96421978  0.51930185     0.14900
C2314       C  0.69751543  0.95902673  0.50959135    -0.24100
H2315       H  0.61924723  0.84202665  0.51851988     0.05100
H2316       H  0.59204962  0.86537666  0.50124081     0.08300
H2317       H  0.59698244  0.86563889  0.54106850     0.08300
H2318       H  0.70717037  0.95893998  0.48700043     0.08300
H2319       H  0.71552436  0.95572896  0.52616649     0.08300
H2320       H  0.68758588  0.98109419  0.51327646     0.05100
C2321       C  0.73485555  0.82314387  0.42337971    -0.20800
C2322       C  0.73757895  0.85375401  0.42929158    -0.07300
C2323       C  0.73720151  0.87388230  0.40444622     0.13600
C2324       C  0.73603769  0.86280480  0.37553521    -0.20800
C2325       C  0.73410222  0.83250853  0.37004861    -0.07300
C2326       C  0.73294714  0.81238225  0.39420862     0.13500
C2327       C  0.73063184  0.77943541  0.38927374    -0.24200
H2328       H  0.73385269  0.80719412  0.44133697     0.14800
H2329       H  0.73664727  0.87804195  0.35676966     0.14900
C2330       C  0.73806807  0.90731394  0.40732683    -0.24100
H2331       H  0.73093087  0.76671453  0.41048115     0.05100
H2332       H  0.74964464  0.77207795  0.37568442     0.08300
H2333       H  0.70947418  0.77401646  0.37766271     0.08300
H2334       H  0.75951580  0.91492038  0.41669278     0.08300
H2335       H  0.71938164  0.91520685  0.42087994     0.08300
H2336       H  0.73599281  0.91867083  0.38546901     0.05100
C2337       C  0.93284119  0.50241652  0.69103579    -0.20800
C2338       C  0.90617677  0.51671879  0.69854094    -0.07300
C2339       C  0.89209770  0.53413366  0.67592326     0.13600
C2340       C  0.90361108  0.53472672  0.64699805    -0.20800
C2341       C  0.93001174  0.52056693  0.64002742    -0.07300
C2342       C  0.94511054  0.50460589  0.66239734     0.13500
C2343       C  0.97384153  0.48921250  0.65581283    -0.24200
H2344       H  0.94392273  0.48865057  0.70736920     0.14800
H2345       H  0.89246109  0.54753916  0.62986054     0.14900
C2346       C  0.86603679  0.55403098  0.68081005    -0.24100
H2347       H  0.98263721  0.47728655  0.67558172     0.05100
H2348       H  0.99088910  0.50575704  0.64858286     0.08300
H2349       H  0.97021983  0.47284838  0.63793400     0.08300
H2350       H  0.86107754  0.55715481  0.70419952     0.08300
H2351       H  0.84608642  0.54504538  0.66924723     0.08300
H2352       H  0.87113507  0.57653514  0.67182525     0.05100
C2353       C  0.93870970  0.48716279  0.81365723    -0.20800
C2354       C  0.90752472  0.49040362  0.81229935    -0.07300
C2355       C  0.89128848  0.48643910  0.83936417     0.13600
C2356       C  0.90672714  0.48281954  0.86628034    -0.20800
C2357       C  0.93774908  0.48095370  0.86751442    -0.07300
C2358       C  0.95385546  0.48204908  0.84065507     0.13500
C2359       C  0.98715215  0.47860165  0.84024875    -0.24200
H2360       H  0.95172244  0.48815315  0.79368005     0.14800
H2361       H  0.89430934  0.48103417  0.88678681     0.14900
C2362       C  0.85759434  0.48541959  0.84086335    -0.24100
H2363       H  0.99631215  0.48106840  0.81753925     0.05100
H2364       H  0.99308978  0.45616800  0.84856329     0.08300
H2365       H  0.99785368  0.49570653  0.85434420     0.08300
H2366       H  0.84847685  0.46734804  0.82700550     0.08300
H2367       H  0.84771702  0.50677553  0.83415635     0.08300
H2368       H  0.84960561  0.48084515  0.86374117     0.05100
C2369       C  0.83183605  0.41171268  0.70039052    -0.20800
C2370       C  0.81168937  0.39713274  0.71927212    -0.07300
C2371       C  0.80221921  0.41133644  0.74525699     0.13600
C2372       C  0.81472942  0.43890598  0.75284782    -0.20800
C2373       C  0.83665129  0.45260222  0.73517873    -0.07300
C2374       C  0.84467585  0.43920003  0.70814610     0.13500
C2375       C  0.86827116  0.45253397  0.68843532    -0.24200
H2376       H  0.83890721  0.40070306  0.68043745     0.14800
H2377       H  0.80860643  0.44908874  0.77356540     0.14900
C2378       C  0.77949435  0.39699663  0.76543734    -0.24100
H2379       H  0.87221187  0.43879134  0.66861226     0.05100
H2380       H  0.88954414  0.45423658  0.70085750     0.08300
H2381       H  0.86126162  0.47474023  0.68056628     0.08300
H2382       H  0.78816052  0.37580051  0.77441634     0.08300
H2383       H  0.75862175  0.39261817  0.75288799     0.08300
H2384       H  0.77410549  0.41136223  0.78445562     0.05100
C2385       C  0.60721013  0.21814547  0.64814963    -0.20800
C2386       C  0.61754988  0.23670694  0.67049341    -0.07300
C2387       C  0.59792016  0.25694337  0.68337553     0.13600
C2388       C  0.56815990  0.25794746  0.67368060    -0.20800
C2389       C  0.55716575  0.23910287  0.65131206    -0.07300
C2390       C  0.57747982  0.21887696  0.63832313     0.13500
C2391       C  0.56874992  0.19675384  0.61507156    -0.24200
H2392       H  0.62254932  0.20261570  0.63854382     0.14800
H2393       H  0.55351387  0.27396552  0.68347098     0.14900
C2394       C  0.60848431  0.27757605  0.70734882    -0.24100
H2395       H  0.58487004  0.17834823  0.61399400     0.05100
H2396       H  0.56864046  0.20739395  0.59284341     0.08300
H2397       H  0.54710121  0.18651627  0.62041178     0.08300
H2398       H  0.62695625  0.29182023  0.69883871     0.08300
H2399       H  0.61651737  0.26451875  0.72671336     0.08300
H2400       H  0.59044008  0.29221902  0.71497907     0.05100
C2401       C  0.76778087  0.33291437  0.58764192    -0.20800
C2402       C  0.74526300  0.31157823  0.59290433    -0.07300
C2403       C  0.72955789  0.29981632  0.56814921     0.13600
C2404       C  0.73463192  0.31211001  0.53985756    -0.20800
C2405       C  0.75449414  0.33596658  0.53554135    -0.07300
C2406       C  0.77229786  0.34545147  0.55946870     0.13500
C2407       C  0.79390757  0.37087224  0.55624001    -0.24200
H2408       H  0.78088450  0.34126395  0.60600373     0.14800
H2409       H  0.72106048  0.30486902  0.52131838     0.14900
C2410       C  0.70650850  0.27536739  0.57100495    -0.24100
H2411       H  0.80663084  0.37495653  0.57696054     0.05100
H2412       H  0.78121845  0.39110991  0.55104223     0.08300
H2413       H  0.81007653  0.36627943  0.53841893     0.08300
H2414       H  0.68787263  0.28267668  0.58511307     0.08300
H2415       H  0.71680438  0.25518177  0.58065132     0.08300
H2416       H  0.69690174  0.26917730  0.54918750     0.05100
C2417       C  0.88826656  0.28322593  0.83682000    -0.20800
C2418       C  0.88773576  0.28274489  0.80591474    -0.07300
C2419       C  0.91436144  0.27783693  0.79040344     0.13600
C2420       C  0.94086107  0.27309218  0.80633532    -0.20800
C2421       C  0.94156460  0.27258115  0.83761480    -0.07300
C2422       C  0.91441864  0.27829101  0.85299638     0.13500
C2423       C  0.91180270  0.27894687  0.88649948    -0.24200
H2424       H  0.86764018  0.28703969  0.84849125     0.14800
H2425       H  0.96066878  0.26908145  0.79375843     0.14900
C2426       C  0.91468339  0.27595937  0.75708186    -0.24100
H2427       H  0.88856193  0.28273729  0.89366632     0.05100
H2428       H  0.92513839  0.29733056  0.89594754     0.08300
H2429       H  0.91837487  0.25763339  0.89674383     0.08300
H2430       H  0.90811424  0.29751292  0.74715735     0.08300
H2431       H  0.89897107  0.25830197  0.74970112     0.08300
H2432       H  0.93709951  0.27059906  0.74856310     0.05100
C2433       C  0.77330348  0.21271623  0.89703010    -0.20800
C2434       C  0.77327105  0.19319563  0.87303922    -0.07300
C2435       C  0.77080196  0.16247812  0.87873455     0.13600
C2436       C  0.76686838  0.15244385  0.90788491    -0.20800
C2437       C  0.76480879  0.17182179  0.93223168    -0.07300
C2438       C  0.76920148  0.20273947  0.92645696     0.13500
C2439       C  0.77005855  0.22595663  0.95004746    -0.24200
H2440       H  0.77577524  0.23628671  0.89257921     0.14800
H2441       H  0.76482334  0.12873714  0.91173913     0.14900
C2442       C  0.77292928  0.13983952  0.85446877    -0.24100
H2443       H  0.77600599  0.24823440  0.94095955     0.05100
H2444       H  0.78739577  0.22051925  0.96675310     0.08300
H2445       H  0.74766192  0.22809721  0.95991268     0.08300
H2446       H  0.79384920  0.14341803  0.84185187     0.08300
H2447       H  0.75350636  0.14147025  0.83933996     0.08300
H2448       H  0.77308467  0.11682061  0.86345296     0.05100
C2449       C  0.61501893  0.99172032  0.83421899    -0.20800
C2450       C  0.59593420  0.99204481  0.80950678    -0.07300
C2451       C  0.56567469  0.98428294  0.81324428     0.13600
C2452       C  0.55514271  0.97745675  0.84187544    -0.20800
C2453       C  0.57411009  0.97840995  0.86677734    -0.07300
C2454       C  0.60471649  0.98477237  0.86264072     0.13500
C2455       C  0.62693872  0.98396782  0.88780105    -0.24200
H2456       H  0.63834548  0.99726921  0.83124083     0.14800
H2457       H  0.53169071  0.97259492  0.84497523     0.14900
C2458       C  0.54410875  0.98488137  0.78762901    -0.24100
H2459       H  0.65015164  0.98657899  0.87974739     0.05100
H2460       H  0.62526343  0.96234722  0.89971723     0.08300
H2461       H  0.62298004  0.00235440  0.90334174     0.08300
H2462       H  0.54979297  0.96764984  0.77138357     0.08300
H2463       H  0.54474321  0.00701491  0.77665432     0.08300
H2464       H  0.52093094  0.98037684  0.79500496     0.05100
C2465       C  0.54973937  0.01686358  0.66208459    -0.20800
C2466       C  0.55874560  0.99384821  0.64345869    -0.07300
C2467       C  0.57788248  0.97166838  0.65540986     0.13600
C2468       C  0.58894528  0.97460979  0.68436759    -0.20800
C2469       C  0.58192817  0.99902346  0.70163168    -0.07300
C2470       C  0.56089631  0.01958362  0.69098016     0.13500
C2471       C  0.55001890  0.04478998  0.70951223    -0.24200
H2472       H  0.53429678  0.03334550  0.65395666     0.14800
H2473       H  0.60491821  0.95882947  0.69281641     0.14900
C2474       C  0.58809900  0.94538184  0.63789963    -0.24100
H2475       H  0.52539521  0.04348032  0.71115334     0.05100
H2476       H  0.55643328  0.06624951  0.69892669     0.08300
H2477       H  0.55903491  0.04418013  0.73240669     0.08300
H2478       H  0.60074630  0.95305835  0.61812115     0.08300
H2479       H  0.56862772  0.93163583  0.63114627     0.08300
H2480       H  0.60305263  0.93083116  0.65105341     0.05100
C2481       C  0.65843056  0.11667007  0.75579904    -0.20800
C2482       C  0.68947281  0.11830172  0.75607589    -0.07300
C2483       C  0.70578546  0.09179912  0.75424458     0.13600
C2484       C  0.69049044  0.06444486  0.75175248    -0.20800
C2485       C  0.65911114  0.06258435  0.75126129    -0.07300
C2486       C  0.64295371  0.08963988  0.75363934     0.13500
C2487       C  0.60927316  0.09118561  0.75389700    -0.24200
H2488       H  0.64601136  0.13704529  0.75736687     0.14800
H2489       H  0.70355215  0.04462684  0.75075221     0.14900
C2490       C  0.73931155  0.09217383  0.75417972    -0.24100
H2491       H  0.60143163  0.11404840  0.75787439     0.05100
H2492       H  0.59956543  0.07719871  0.77174168     0.08300
H2493       H  0.59988402  0.08483006  0.73218864     0.08300
H2494       H  0.74786221  0.10075699  0.77556458     0.08300
H2495       H  0.74760076  0.10643406  0.73570654     0.08300
H2496       H  0.74846874  0.06963899  0.75127253     0.05100
C2497       C  0.84355875  0.61382621  0.75370648    -0.20800
C2498       C  0.81257124  0.61588071  0.75505372    -0.07300
C2499       C  0.79512525  0.58967588  0.75758344     0.13600
C2500       C  0.80923719  0.56191161  0.75859849    -0.20800
C2501       C  0.84035003  0.55995039  0.75783394    -0.07300
C2502       C  0.85774914  0.58636901  0.75567135     0.13500
C2503       C  0.89134124  0.58593639  0.75504445    -0.24200
H2504       H  0.85678752  0.63400513  0.75157001     0.14800
H2505       H  0.79601614  0.54171972  0.76049049     0.14900
C2506       C  0.76171139  0.59101043  0.75859649    -0.24100
H2507       H  0.90101521  0.60855409  0.75218039     0.05100
H2508       H  0.89923211  0.57241194  0.73639056     0.08300
H2509       H  0.90017422  0.57676124  0.77612451     0.08300
H2510       H  0.75323613  0.60210383  0.73822703     0.08300
H2511       H  0.75469480  0.60367428  0.77825866     0.08300
H2512       H  0.75142726  0.56852273  0.76007820     0.05100
C2513       C  0.76293428  0.85392441  0.56668449    -0.20800
C2514       C  0.74414157  0.84103272  0.54521386    -0.07300
C2515       C  0.72579066  0.81660214  0.55394086     0.13600
C2516       C  0.72591690  0.80699556  0.58380994    -0.20800
C2517       C  0.74459946  0.82029359  0.60492479    -0.07300
C2518       C  0.76388854  0.84349734  0.59606331     0.13500
C2519       C  0.78480367  0.85799011  0.61785612    -0.24200
H2520       H  0.77657381  0.87298217  0.56079818     0.14800
H2521       H  0.71131324  0.78892087  0.59080539     0.14900
C2522       C  0.70524786  0.80104920  0.53257098    -0.24100
H2523       H  0.79812042  0.87614860  0.60737092     0.05100
H2524       H  0.80049762  0.84131126  0.62684312     0.08300
H2525       H  0.77195160  0.86748029  0.63633793     0.08300
H2526       H  0.71834891  0.78894909  0.51598448     0.08300
H2527       H  0.69062793  0.81719190  0.52130740     0.08300
H2528       H  0.69075692  0.78442513  0.54398724     0.05100
C2529       C  0.58216693  0.77468153  0.80528692    -0.20800
C2530       C  0.60359535  0.75620233  0.81849399    -0.07300
C2531       C  0.59445630  0.73644258  0.84164156     0.13600
C2532       C  0.56474843  0.73606676  0.85075320    -0.20800
C2533       C  0.54343640  0.75425599  0.83745893    -0.07300
C2534       C  0.55215156  0.77371250  0.81413186     0.13500
C2535       C  0.53032967  0.79376652  0.79857789    -0.24200
H2536       H  0.58876173  0.78954455  0.78740160     0.14800
H2537       H  0.55798202  0.72103036  0.86842312     0.14900
C2538       C  0.61548741  0.71568483  0.85748330    -0.24100
H2539       H  0.54171619  0.80943571  0.78308391     0.05100
H2540       H  0.51790793  0.80705448  0.81477485     0.08300
H2541       H  0.51444027  0.78046105  0.78525345     0.08300
H2542       H  0.63446250  0.72841658  0.86696813     0.08300
H2543       H  0.62360678  0.69868626  0.84196876     0.08300
H2544       H  0.60451219  0.70350452  0.87605283     0.05100
C2545       C  0.66151674  0.89722744  0.76357236    -0.20800
C2546       C  0.66867629  0.88642806  0.73539056    -0.07300
C2547       C  0.66962668  0.90694329  0.71123458     0.13600
C2548       C  0.66228908  0.93695943  0.71595215    -0.20800
C2549       C  0.65406772  0.94704774  0.74406069    -0.07300
C2550       C  0.65415584  0.92686353  0.76812989     0.13500
C2551       C  0.64628780  0.93624110  0.79889001    -0.24200
H2552       H  0.66139945  0.88227427  0.78252121     0.14800
H2553       H  0.66221266  0.95249892  0.69746364     0.14900
C2554       C  0.67764747  0.89752928  0.68041741    -0.24100
H2555       H  0.65015842  0.91840355  0.81556959     0.05100
H2556       H  0.62234974  0.94143943  0.79950643     0.08300
H2557       H  0.66007068  0.95574741  0.80523626     0.08300
H2558       H  0.66213753  0.87976874  0.67296205     0.08300
H2559       H  0.70084597  0.88940243  0.68011894     0.08300
H2560       H  0.67622335  0.91622769  0.66426443     0.05100
C2561       C  0.75976705  0.69761100  0.89475291    -0.20800
C2562       C  0.73412740  0.68675799  0.88058594    -0.07300
C2563       C  0.71284729  0.67041401  0.89714739     0.13600
C2564       C  0.71943543  0.66254624  0.92673604    -0.20800
C2565       C  0.74661284  0.67098023  0.93987331    -0.07300
C2566       C  0.76594953  0.69048644  0.92433025     0.13500
C2567       C  0.79380600  0.70326219  0.93810409    -0.24200
H2568       H  0.77567898  0.71130123  0.88227202     0.14800
H2569       H  0.70437454  0.64763696  0.93882526     0.14900
C2570       C  0.68434863  0.65961245  0.88313848    -0.24100
H2571       H  0.79359259  0.72780300  0.93601605     0.05100
H2572       H  0.81365658  0.69479444  0.92652073     0.08300
H2573       H  0.79564920  0.69777046  0.96201091     0.08300
H2574       H  0.68937699  0.64537714  0.86396051     0.08300
H2575       H  0.67110625  0.67883073  0.87547769     0.08300
H2576       H  0.67056200  0.64646381  0.89901831     0.05100
C2577       C  0.87315339  0.74501623  0.63759816    -0.20800
C2578       C  0.86846672  0.73753231  0.66731538    -0.07300
C2579       C  0.89312004  0.73050440  0.68563770     0.13600
C2580       C  0.92211304  0.73336920  0.67408241    -0.20800
C2581       C  0.92671205  0.74266023  0.64470152    -0.07300
C2582       C  0.90174725  0.74676834  0.62581978     0.13500
C2583       C  0.90423904  0.75296397  0.59304985    -0.24200
H2584       H  0.85422185  0.74949987  0.62333169     0.14800
H2585       H  0.94119986  0.72989604  0.68838452     0.14900
C2586       C  0.88908316  0.72177075  0.71768796    -0.24100
H2587       H  0.88993515  0.73703403  0.58073664     0.05100
H2588       H  0.92710618  0.75014715  0.58475442     0.08300
H2589       H  0.89669132  0.77582304  0.58802051     0.08300
H2590       H  0.87606798  0.70074576  0.71930732     0.08300
H2591       H  0.87719930  0.73949487  0.72953216     0.08300
H2592       H  0.91076255  0.71823884  0.72899359     0.05100
loop_ 
_geom_bond_atom_site_label_1 
_geom_bond_atom_site_label_2 
_geom_bond_distance 
_geom_bond_site_symmetry_2 
_ccdc_geom_bond_type 
O1           Mg3   2.136       .  S
O1           Mg9   2.140       .  S
O1           C36   1.238       .  S
C2           O15   1.240       .  S
C2           O39   1.274       .  A
C2           H41   1.080       .  S
Mg3          O32   2.148       .  S
Mg3          O47   2.322       .  S
Mg3          O43   2.259       .  S
Mg3          O14   2.297       .  S
O4          Mg46   2.134       .  S
O4          Mg29   2.142       .  S
O4           C25   1.238       .  S
O5           C36   1.272       .  A
O5          Mg29   2.306       .  S
C6            O8   1.272       .  A
C6           O20   1.278       .  A
C6         C2498   1.480       .  S
O7           C35   1.274       .  A
O7           Mg9   2.309       .  S
O8          Mg40   2.265       .  S
Mg9          O15   2.147       .  S
Mg9          O23   2.278       .  S
Mg9          O11   2.358       .  S
C10          O48   1.273       .  A
C10          O16   1.275       .  A
C10        C2562   1.476       .  S
O11          C18   1.280       .  A
H12          C25   1.080       .  S
C13          O27   1.237       .  S
C13          O28   1.270       .  A
C13          H38   1.081       .  S
O14          C37   1.271       .  A
O15         Mg29   2.133       .  S
O16         Mg46   2.321       .  S
C17          O30   1.266       .  A
C17          O22   1.280       .  A
C17        C2530   1.494       .  S
C18          O45   1.275       .  A
C18        C2546   1.503       .  S
Mg19         O26   2.120       .  S
Mg19         O27   2.133       .  S
Mg19         O20   2.339       .  S
Mg19         O21   2.305       .  S
Mg19         O48   2.250       .  S
O21          C25   1.272       .  A
O22         Mg29   2.345       .  S
O23          C42   1.274       .  A
O24          C44   1.272       .  A
O24         Mg40   2.297       .  S
O26         Mg40   2.134       .  S
O26          C37   1.238       .  S
O27         Mg46   2.122       .  S
O28         Mg40   2.294       .  S
Mg29         O45   2.259       .  S
O30         Mg46   2.221       .  S
H31          C36   1.083       .  S
O32         Mg40   2.157       .  S
O32          C35   1.239       .  S
H33          C35   1.080       .  S
H34          C37   1.081       .  S
O39         Mg46   2.308       .  S
C42          O47   1.277       .  A
C42        C2517   1.480       .  S
O43          C44   1.273       .  A
C44        C2578   1.475       .  S
C49          C50   1.527       .  S
C49          C55   1.529       .  S
C49          C53   1.562       .  S
C49        C2485   1.543       .  S
C50          H57   1.087       .  S
C50          C51   1.360       .  D
C51          C52   1.542   1_545  S
C51        C2450   1.486   1_545  S
C52          C56   1.541   1_565  S
C52          C54   1.537       .  S
C52          H58   1.109       .  S
C53          H59   1.082       .  S
C53          C54   1.376   1_545  D
C54        C2549   1.494       .  S
C55          H60   1.086       .  S
C55          C56   1.361       .  D
C56        C2469   1.479   1_545  S
O61         Mg63   2.132       .  S
O61         Mg69   2.149       .  S
O61          C96   1.239       .  S
C62          O75   1.240       .  S
C62          O99   1.275       .  A
C62         H101   1.082       .  S
Mg63         O92   2.157       .  S
Mg63        O107   2.281       .  S
Mg63        O103   2.261       .  S
Mg63         O74   2.285       .  S
O64        Mg106   2.133       .  S
O64         Mg89   2.127       .  S
O64          C85   1.238       .  S
O65          C96   1.273       .  A
O65         Mg89   2.307       .  S
C66          O68   1.274       .  A
C66          O80   1.277       .  A
C66        C2482   1.486       .  S
O67          C95   1.272       .  A
O67         Mg69   2.300       .  S
O68        Mg100   2.283       .  S
Mg69         O75   2.131       .  S
Mg69         O83   2.272       .  S
Mg69         O71   2.309       .  S
C70         O108   1.273       .  A
C70          O76   1.278       .  A
C70        C2386   1.477       .  S
O71          C78   1.275       .  A
H72          C85   1.081       .  S
C73          O87   1.238       .  S
C73          O88   1.270       .  A
C73          H98   1.081       .  S
O74          C97   1.268       .  A
O75         Mg89   2.137       .  S
O76        Mg106   2.332       .  S
C77          O90   1.270       .  A
C77          O82   1.278       .  A
C77        C2402   1.494       .  S
C78         O105   1.273       .  A
C78        C2370   1.477       .  S
Mg79         O86   2.116       .  S
Mg79         O87   2.138       .  S
Mg79         O80   2.299       .  S
Mg79         O81   2.295       .  S
Mg79        O108   2.264       .  S
O81          C85   1.271       .  A
O82         Mg89   2.313       .  S
O83         C102   1.272       .  A
O84         C104   1.275       .  A
O84        Mg100   2.300       .  S
O86        Mg100   2.149       .  S
O86          C97   1.236       .  S
O87        Mg106   2.118       .  S
O88        Mg100   2.287       .  S
Mg89        O105   2.286       .  S
O90        Mg106   2.249       .  S
H91          C96   1.080       .  S
O92        Mg100   2.138       .  S
O92          C95   1.238       .  S
H93          C95   1.080       .  S
H94          C97   1.082       .  S
O99        Mg106   2.311       .  S
C102        O107   1.273       .  A
C102       C2418   1.478       .  S
O103        C104   1.273       .  A
C104       C2434   1.485       .  S
C109        C110   1.527       .  S
C109        C115   1.528       .  S
C109        C113   1.564       .  S
C109       C2354   1.551       .  S
C110        H117   1.087       .  S
C110        C111   1.359       .  D
C111        C112   1.543       .  S
C111       C2373   1.491       .  S
C112        C116   1.551       .  S
C112        C114   1.547       .  S
C112        H118   1.107       .  S
C113        H119   1.081       .  S
C113        C114   1.386       .  D
C114       C2338   1.519       .  S
C115        H120   1.087       .  S
C115        C116   1.358       .  D
C116       C2501   1.489       .  S
C121        C122   1.528       .  S
C121        C127   1.527       .  S
C121        C125   1.564       .  S
C121       C2322   1.547       .  S
C122        H129   1.087       .  S
C122        C123   1.359       .  D
C123        C124   1.551       .  S
C123       C2290   1.492       .  S
C124        C128   1.545       .  S
C124        C126   1.542       .  S
C124        H130   1.110       .  S
C125        H131   1.079       .  S
C125        C126   1.382       .  D
C126       C2514   1.504       .  S
C127        H132   1.088       .  S
C127        C128   1.359       .  D
C128       C2306   1.491       .  S
O133       Mg135   2.129       .  S
O133       Mg141   2.143       .  S
O133        C168   1.238       .  S
C134        O147   1.238       .  S
C134        O171   1.272       .  A
C134        H173   1.082       .  S
Mg135       O164   2.133       .  S
Mg135       O179   2.323       .  S
Mg135       O175   2.239       .  S
Mg135       O146   2.306       .  S
O136       Mg178   2.139       .  S
O136       Mg161   2.149       .  S
O136        C157   1.240       .  S
O137        C168   1.272       .  A
O137       Mg161   2.297       .  S
C138        O140   1.272       .  A
C138        O152   1.276       .  A
C138       C2277   1.486       .  S
O139        C167   1.271       .  A
O139       Mg141   2.298       .  S
O140       Mg172   2.260       .  S
Mg141       O147   2.132       .  S
Mg141       O155   2.264       .  S
Mg141       O143   2.338       .  S
C142        O180   1.269       .  A
C142        O148   1.280       .  A
C142       C2226   1.496       .  S
O143        C150   1.278       .  A
H144        C157   1.081       .  S
C145        O159   1.239       .  S
C145        O160   1.273       .  A
C145        H170   1.082       .  S
O146        C169   1.274       .  A
O147       Mg161   2.137       .  S
O148       Mg178   2.333       .  S
C149        O162   1.274       .  A
C149        O154   1.275       .  A
C149       C2325   1.481       .  S
C150        O177   1.271       .  A
C150       C2242   1.477       .  S
Mg151       O158   2.133       .  S
Mg151       O159   2.135       .  S
Mg151       O152   2.337       .  S
Mg151       O153   2.310       .  S
Mg151       O180   2.242       .  S
O153        C157   1.274       .  A
O154       Mg161   2.321       .  S
O155        C174   1.274       .  A
O156        C176   1.276       .  A
O156       Mg172   2.324       .  S
O158       Mg172   2.125       .  S
O158        C169   1.240       .  S
O159       Mg178   2.134       .  S
O160       Mg172   2.307       .  S
Mg161       O177   2.258       .  S
O162       Mg178   2.270       .  S
H163        C168   1.082       .  S
O164       Mg172   2.133       .  S
O164        C167   1.237       .  S
H165        C167   1.081       .  S
H166        C169   1.082       .  S
O171       Mg178   2.304       .  S
C174        O179   1.276       .  A
C174       C2258   1.481       .  S
O175        C176   1.271       .  A
C176       C2213   1.478       .  S
C181        C182   1.525   1_556  S
C181        C187   1.527       .  S
C181        C185   1.555       .  S
C181       C2181   1.532       .  S
C182        H189   1.087       .  S
C182        C183   1.355       .  D
C183        C184   1.544   1_554  S
C183       C2210   1.475       .  S
C184        C188   1.541       .  S
C184        C186   1.535       .  S
C184        H190   1.111       .  S
C185        H191   1.077       .  S
C185        C186   1.373       .  D
C186       C2194   1.485       .  S
C187        H192   1.088       .  S
C187        C188   1.363       .  D
C188       C2565   1.482       .  S
C193        C194   1.527       .  S
C193        C199   1.533       .  S
C193        C197   1.558       .  S
C193       C2245   1.548       .  S
C194        H201   1.085       .  S
C194        C195   1.359       .  D
C195        C196   1.544       .  S
C195       C2146   1.485       .  S
C196        C200   1.541       .  S
C196        C198   1.543       .  S
C196        H202   1.111       .  S
C197        H203   1.080       .  S
C197        C198   1.378       .  D
C198       C2130   1.501       .  S
C199        H204   1.087       .  S
C199        C200   1.363       .  D
C200       C2162   1.489       .  S
C205        C206   1.534       .  S
C205        C211   1.539       .  S
C205        C209   1.546       .  S
C205       C2066   1.547       .  S
C206        H213   1.085       .  S
C206        C207   1.358       .  D
C207        C208   1.547   1_565  S
C207       C2101   1.486   1_565  S
C208        C212   1.546   1_545  S
C208        C210   1.545       .  S
C208        H214   1.108       .  S
C209        H215   1.082       .  S
C209        C210   1.377   1_565  D
C210       C2085   1.504       .  S
C211        H216   1.083       .  S
C211        C212   1.364       .  D
C212       C2114   1.497   1_565  S
C217        C218   1.534       .  S
C217        C223   1.529       .  S
C217        C221   1.553       .  S
C217       C2437   1.549       .  S
C218        H225   1.087       .  S
C218        C219   1.360       .  D
C219        C220   1.549   1_556  S
C219       C2034   1.490       .  S
C220        C224   1.548   1_554  S
C220        C222   1.544       .  S
C220        H226   1.106       .  S
C221        H227   1.073       .  S
C221        C222   1.375   1_556  D
C222       C2018   1.499       .  S
C223        H228   1.088       .  S
C223        C224   1.360       .  D
C224       C2053   1.494   1_556  S
C229        C230   1.523       .  S
C229        C235   1.526       .  S
C229        C233   1.559       .  S
C229       C1954   1.543       .  S
C230        H237   1.086       .  S
C230        C231   1.358       .  D
C231        C232   1.552       .  S
C231       C2002   1.489       .  S
C232        C236   1.556       .  S
C232        C234   1.543       .  S
C232        H238   1.109       .  S
C233        H239   1.082       .  S
C233        C234   1.381       .  D
C234       C1973   1.506       .  S
C235        H240   1.088       .  S
C235        C236   1.356       .  D
C236       C1986   1.491       .  S
C241        C242   1.519       .  S
C241        C247   1.521       .  S
C241        C245   1.559       .  S
C241       C1922   1.534       .  S
C242        H249   1.088       .  S
C242        C243   1.355       .  D
C243        C244   1.546       .  S
C243       C2405   1.482       .  S
C244        C248   1.545       .  S
C244        C246   1.544       .  S
C244        H250   1.107       .  S
C245        H251   1.082       .  S
C245        C246   1.378       .  D
C246       C1938   1.496       .  S
C247        H252   1.088       .  S
C247        C248   1.360       .  D
C248       C1906   1.483       .  S
C253        C254   1.536       .  S
C253        C259   1.533       .  S
C253        C257   1.550       .  S
C253       C1874   1.549       .  S
C254        H261   1.083       .  S
C254        C255   1.358       .  D
C255        C256   1.545       .  S
C255       C2261   1.488       .  S
C256        C260   1.546       .  S
C256        C258   1.545       .  S
C256        H262   1.110       .  S
C257        H263   1.082       .  S
C257        C258   1.378       .  D
C258       C1858   1.501       .  S
C259        H264   1.086       .  S
C259        C260   1.361       .  D
C260       C1890   1.492       .  S
C265        C266   1.527       .  S
C265        C271   1.532       .  S
C265        C269   1.552       .  S
C265       C1810   1.538       .  S
C266        H273   1.087       .  S
C266        C267   1.362       .  D
C267        C268   1.544       .  S
C267       C1794   1.486       .  S
C268        C272   1.547       .  S
C268        C270   1.541       .  S
C268        H274   1.111       .  S
C269        H275   1.081       .  S
C269        C270   1.373       .  D
C270       C1829   1.489       .  S
C271        H276   1.087       .  S
C271        C272   1.359       .  D
C272       C1845   1.483       .  S
C277        C278   1.525       .  S
C277        C283   1.524   1_655  S
C277        C281   1.560   1_655  S
C277       C1762   1.547       .  S
C278        H285   1.087       .  S
C278        C279   1.364       .  D
C279        C280   1.549   1_655  S
C279       C2274   1.501       .  S
C280        C284   1.544       .  S
C280        C282   1.544       .  S
C280        H286   1.108       .  S
C281        H287   1.081       .  S
C281        C282   1.382       .  D
C282       C1778   1.497       .  S
C283        H288   1.087       .  S
C283        C284   1.356       .  D
C284       C1746   1.481       .  S
O289       Mg291   2.125       .  S
O289       Mg297   2.142       .  S
O289        C324   1.238       .  S
C290        O303   1.238       .  S
C290        O327   1.271       .  A
C290        H329   1.081       .  S
Mg291       O320   2.138       .  S
Mg291       O335   2.331       .  S
Mg291       O331   2.272       .  S
Mg291       O302   2.305       .  S
O292       Mg334   2.143       .  S
O292       Mg317   2.134       .  S
O292        C313   1.240       .  S
O293        C324   1.271       .  A
O293       Mg317   2.296       .  S
C294        O296   1.270       .  A
C294        O308   1.282       .  A
C294       C1701   1.481       .  S
O295        C323   1.271       .  A
O295       Mg297   2.292       .  S
O296       Mg328   2.247       .  S
Mg297       O303   2.120       .  S
Mg297       O311   2.236       .  S
Mg297       O299   2.289       .  S
C298        O336   1.276       .  A
C298        O304   1.277       .  A
C298       C1714   1.501       .  S
O299        C306   1.271       .  A
H300        C313   1.081       .  S
C301        O315   1.240       .  S
C301        O316   1.275       .  A
C301        H326   1.080       .  S
O302        C325   1.273       .  A
O303       Mg317   2.141       .  S
O304       Mg334   2.321       .  S
C305        O318   1.279       .  A
C305        O310   1.275       .  A
C305       C2133   1.509       .  S
C306        O333   1.275       .  A
C306       C1842   1.498       .  S
Mg307       O314   2.135       .  S
Mg307       O315   2.141       .  S
Mg307       O308   2.369       .  S
Mg307       O309   2.309       .  S
Mg307       O336   2.273       .  S
O309        C313   1.274       .  A
O310       Mg317   2.312       .  S
O311        C330   1.268       .  A
O312        C332   1.276       .  A
O312       Mg328   2.322       .  S
O314       Mg328   2.125       .  S
O314        C325   1.239       .  S
O315       Mg334   2.158       .  S
O316       Mg328   2.314       .  S
Mg317       O333   2.281       .  S
O318       Mg334   2.310       .  S
H319        C324   1.080       .  S
O320       Mg328   2.119       .  S
O320        C323   1.238       .  S
H321        C323   1.081       .  S
H322        C325   1.081       .  S
O327       Mg334   2.296       .  S
C330        O335   1.280       .  A
C330       C1730   1.483       .  S
O331        C332   1.275       .  A
C332       C1749   1.500       .  S
C337        C338   1.520       .  S
C337        C343   1.524       .  S
C337        C341   1.561       .  S
C337       C1650   1.544       .  S
C338        H345   1.087       .  S
C338        C339   1.361       .  D
C339        C340   1.558   1_556  S
C339       C1666   1.504   1_556  S
C340        C344   1.553   1_554  S
C340        C342   1.548       .  S
C340        H346   1.105       .  S
C341        H347   1.083   1_556  S
C341        C342   1.384   1_556  D
C342       C1698   1.503       .  S
C343        H348   1.088       .  S
C343        C344   1.356       .  D
C344       C1682   1.497       .  S
C349        C350   1.533       .  S
C349        C355   1.535       .  S
C349        C353   1.551       .  S
C349       C1634   1.552       .  S
C350        H357   1.086       .  S
C350        C351   1.358       .  D
C351        C352   1.550       .  S
C351       C1621   1.489       .  S
C352        C356   1.543       .  S
C352        C354   1.546       .  S
C352        H358   1.101       .  S
C353        H359   1.085       .  S
C353        C354   1.385       .  D
C354       C2389   1.515       .  S
C355        H360   1.079       .  S
C355        C356   1.357       .  D
C356       C1605   1.489       .  S
O361       Mg363   2.138       .  S
O361       Mg369   2.135       .  S
O361        C396   1.238       .  S
C362        O375   1.238       .  S
C362        O399   1.270       .  A
C362        H401   1.081       .  S
Mg363       O392   2.138       .  S
Mg363       O407   2.331       .  S
Mg363       O403   2.269       .  S
Mg363       O374   2.302       .  S
O364       Mg406   2.144       .  S
O364       Mg389   2.115       .  S
O364        C385   1.238       .  S
O365        C396   1.271       .  A
O365       Mg389   2.297       .  S
C366        O368   1.276       .  A
C366        O380   1.277       .  A
C366       C2082   1.482       .  S
O367        C395   1.274       .  A
O367       Mg369   2.310       .  S
O368       Mg400   2.288       .  S
Mg369       O375   2.107       .  S
Mg369       O383   2.226       .  S
Mg369       O371   2.332       .  S
C370        O408   1.274       .  A
C370        O376   1.273       .  A
C370       C1586   1.483       .  S
O371        C378   1.277       .  A
H372        C385   1.082       .  S
C373        O387   1.238       .  S
C373        O388   1.272       .  A
C373        H398   1.081       .  S
O374        C397   1.273       .  A
O375       Mg389   2.139       .  S
O376       Mg406   2.291       .  S
C377        O390   1.274       .  A
C377        O382   1.273       .  A
C377       C1637   1.482       .  S
C378        O405   1.270       .  A
C378       C1970   1.474       .  S
Mg379       O386   2.130       .  S
Mg379       O387   2.149       .  S
Mg379       O380   2.319       .  S
Mg379       O381   2.293       .  S
Mg379       O408   2.259       .  S
O381        C385   1.271       .  A
O382       Mg389   2.294       .  S
O383        C402   1.270       .  A
O384        C404   1.279       .  A
O384       Mg400   2.334       .  S
O386       Mg400   2.144       .  S
O386        C397   1.239       .  S
O387       Mg406   2.141       .  S
O388       Mg400   2.300       .  S
Mg389       O405   2.242       .  S
O390       Mg406   2.274       .  S
H391        C396   1.080       .  S
O392       Mg400   2.144       .  S
O392        C395   1.240       .  S
H393        C395   1.081       .  S
H394        C397   1.082       .  S
O399       Mg406   2.287       .  S
C402        O407   1.278       .  A
C402       C1570   1.494       .  S
O403        C404   1.274       .  A
C404       C1554   1.481       .  S
C409        C410   1.523       .  S
C409        C415   1.528       .  S
C409        C413   1.557       .  S
C409       C2421   1.540       .  S
C410        H417   1.087       .  S
C410        C411   1.359   1_655  D
C411        C412   1.548       .  S
C411       C1522   1.490       .  S
C412        C416   1.547   1_455  S
C412        C414   1.545       .  S
C412        H418   1.110       .  S
C413        H419   1.077   1_655  S
C413        C414   1.378   1_655  D
C414       C1557   1.499       .  S
C415        H420   1.087       .  S
C415        C416   1.358       .  D
C416       C1538   1.488       .  S
O421       Mg423   2.132       .  S
O421       Mg429   2.132       .  S
O421        C456   1.237       .  S
C422        O435   1.237       .  S
C422        O459   1.270       .  A
C422        H461   1.082       .  S
Mg423       O452   2.150       .  S
Mg423       O467   2.339       .  S
Mg423       O463   2.262       .  S
Mg423       O434   2.301       .  S
O424       Mg466   2.149       .  S
O424       Mg449   2.134       .  S
O424        C445   1.237       .  S
O425        C456   1.270       .  A
O425       Mg449   2.299       .  S
C426        O428   1.272       .  A
C426        O440   1.274       .  A
C426       C1893   1.474       .  S
O427        C455   1.273       .  A
O427       Mg429   2.302       .  S
O428       Mg460   2.267       .  S
Mg429       O435   2.136       .  S
Mg429       O443   2.246       .  S
Mg429       O431   2.313       .  S
C430        O468   1.270       .  A
C430        O436   1.272       .  A
C430       C1909   1.471       .  S
O431        C438   1.275       .  A
H432        C445   1.081       .  S
C433        O447   1.239       .  S
C433        O448   1.273       .  A
C433        H458   1.083       .  S
O434        C457   1.272       .  A
O435       Mg449   2.147       .  S
O436       Mg466   2.307       .  S
C437        O450   1.270       .  A
C437        O442   1.277       .  A
C437       C1493   1.477       .  S
C438        O465   1.274       .  A
C438       C1474   1.474       .  S
Mg439       O446   2.131       .  S
Mg439       O447   2.134       .  S
Mg439       O440   2.315       .  S
Mg439       O441   2.302       .  S
Mg439       O468   2.244       .  S
O441        C445   1.271       .  A
O442       Mg449   2.327       .  S
O443        C462   1.270       .  A
O444        C464   1.275       .  A
O444       Mg460   2.315       .  S
O446       Mg460   2.138       .  S
O446        C457   1.238       .  S
O447       Mg466   2.145       .  S
O448       Mg460   2.308       .  S
Mg449       O465   2.265       .  S
O450       Mg466   2.244       .  S
H451        C456   1.082       .  S
O452       Mg460   2.146       .  S
O452        C455   1.239       .  S
H453        C455   1.081       .  S
H454        C457   1.081       .  S
O459       Mg466   2.292       .  S
C462        O467   1.279       .  A
C462       C2021   1.479       .  S
O463        C464   1.275       .  A
C464       C1506   1.480       .  S
C469        C470   1.533   1_545  S
C469        C475   1.526       .  S
C469        C473   1.559       .  S
C469       C1461   1.543       .  S
C470        H477   1.087       .  S
C470        C471   1.356       .  D
C471        C472   1.541   1_565  S
C471       C2229   1.482       .  S
C472        C476   1.539       .  S
C472        C474   1.541       .  S
C472        H478   1.111       .  S
C473        H479   1.078   1_545  S
C473        C474   1.380       .  D
C474       C1442   1.495       .  S
C475        H480   1.087       .  S
C475        C476   1.358       .  D
C476       C1477   1.482       .  S
C481        C482   1.527       .  S
C481        C487   1.529       .  S
C481        C485   1.552       .  S
C481       C1426   1.539       .  S
C482        H489   1.087       .  S
C482        C483   1.358       .  D
C483        C484   1.546   1_455  S
C483       C1413   1.480       .  S
C484        C488   1.546   1_655  S
C484        C486   1.544       .  S
C484        H490   1.108       .  S
C485        H491   1.076       .  S
C485        C486   1.369   1_455  D
C486       C1490   1.493       .  S
C487        H492   1.087       .  S
C487        C488   1.364       .  D
C488       C1397   1.495   1_455  S
O493       Mg495   2.111       .  S
O493       Mg501   2.141       .  S
O493        C528   1.236       .  S
C494        O507   1.237       .  S
C494        O531   1.271       .  A
C494        H533   1.080       .  S
Mg495       O524   2.156       .  S
Mg495       O539   2.271       .  S
Mg495       O535   2.224       .  S
Mg495       O506   2.288       .  S
O496       Mg538   2.147       .  S
O496       Mg521   2.139       .  S
O496        C517   1.238       .  S
O497        C528   1.269       .  A
O497       Mg521   2.289       .  S
C498        O500   1.275       .  A
C498        O512   1.278       .  A
C498       C1314   1.509       .  S
O499        C527   1.273       .  A
O499       Mg501   2.302       .  S
O500       Mg532   2.306       .  S
Mg501       O507   2.142       .  S
Mg501       O515   2.307       .  S
Mg501       O503   2.303       .  S
C502        O540   1.268       .  A
C502        O508   1.277       .  A
C502       C1429   1.478       .  S
O503        C510   1.279       .  A
H504        C517   1.081       .  S
C505        O519   1.237       .  S
C505        O520   1.273       .  A
C505        H530   1.080       .  S
O506        C529   1.269       .  A
O507       Mg521   2.160       .  S
O508       Mg538   2.311       .  S
C509        O522   1.277       .  A
C509        O514   1.277       .  A
C509       C1330   1.507       .  S
C510        O537   1.274       .  A
C510       C1362   1.490       .  S
Mg511       O518   2.113       .  S
Mg511       O519   2.152       .  S
Mg511       O512   2.316       .  S
Mg511       O513   2.304       .  S
Mg511       O540   2.232       .  S
O513        C517   1.272       .  A
O514       Mg521   2.319       .  S
O515        C534   1.276       .  A
O516        C536   1.278       .  A
O516       Mg532   2.316       .  S
O518       Mg532   2.145       .  S
O518        C529   1.237       .  S
O519       Mg538   2.165       .  S
O520       Mg532   2.309       .  S
Mg521       O537   2.277       .  S
O522       Mg538   2.299       .  S
H523        C528   1.081       .  S
O524       Mg532   2.143       .  S
O524        C527   1.239       .  S
H525        C527   1.081       .  S
H526        C529   1.081       .  S
O531       Mg538   2.298       .  S
C534        O539   1.269       .  A
C534       C1346   1.492       .  S
O535        C536   1.266       .  A
C536       C1378   1.471       .  S
C541        C542   1.520       .  S
C541        C547   1.523   1_554  S
C541        C545   1.561       .  S
C541       C1285   1.529       .  S
C542        H549   1.088       .  S
C542        C543   1.350       .  D
C543        C544   1.537       .  S
C543       C1381   1.472       .  S
C544        C548   1.544   1_554  S
C544        C546   1.544       .  S
C544        H550   1.107       .  S
C545        H551   1.079       .  S
C545        C546   1.383       .  D
C546       C1298   1.500       .  S
C547        H552   1.087       .  S
C547        C548   1.359       .  D
C548       C1573   1.488       .  S
C553        C554   1.527       .  S
C553        C559   1.530   1_545  S
C553        C557   1.555       .  S
C553       C1253   1.537       .  S
C554        H561   1.087       .  S
C554        C555   1.358       .  D
C555        C556   1.546       .  S
C555       C1365   1.490       .  S
C556        C560   1.545   1_545  S
C556        C558   1.537       .  S
C556        H562   1.111       .  S
C557        H563   1.079   1_545  S
C557        C558   1.372       .  D
C558       C1269   1.484       .  S
C559        H564   1.087       .  S
C559        C560   1.356       .  D
C560       C1717   1.479       .  S
O565       Mg567   2.150       .  S
O565       Mg573   2.143   1_655  S
O565        C600   1.240   1_565  S
C566        O579   1.237   1_565  S
C566        O603   1.270   1_565  A
C566        H605   1.081       .  S
Mg567       O596   2.135       .  S
Mg567       O611   2.318       .  S
Mg567       O607   2.287       .  S
Mg567       O578   2.307   1_565  S
O568       Mg610   2.145       .  S
O568       Mg593   2.135       .  S
O568        C589   1.239   1_455  S
O569        C600   1.274       .  A
O569       Mg593   2.308   1_655  S
C570        O572   1.270   1_545  A
C570        O584   1.275       .  A
C570       C1458   1.480       .  S
O571        C599   1.272   1_455  A
O571       Mg573   2.299       .  S
O572       Mg604   2.244       .  S
Mg573       O579   2.121   1_565  S
Mg573       O587   2.242       .  S
Mg573       O575   2.317       .  S
C574        O612   1.272       .  A
C574        O580   1.278   1_655  A
C574       C1410   1.486       .  S
O575        C582   1.277   1_565  A
H576        C589   1.080       .  S
C577        O591   1.238   1_455  S
C577        O592   1.272   1_445  A
C577        H602   1.081       .  S
O578        C601   1.273       .  A
O579       Mg593   2.130       .  S
O580       Mg610   2.322       .  S
C581        O594   1.273       .  A
C581        O586   1.281       .  A
C581       C1237   1.496       .  S
C582        O609   1.274       .  A
C582       C2098   1.495       .  S
Mg583       O590   2.152       .  S
Mg583       O591   2.138       .  S
Mg583       O584   2.306       .  S
Mg583       O585   2.300       .  S
Mg583       O612   2.269       .  S
O585        C589   1.272       .  A
O586       Mg593   2.332       .  S
O587        C606   1.270   1_455  A
O588        C608   1.279       .  A
O588       Mg604   2.336       .  S
O590       Mg604   2.143   1_545  S
O590        C601   1.238       .  S
O591       Mg610   2.135   1_655  S
O592       Mg604   2.304       .  S
Mg593       O609   2.286       .  S
O594       Mg610   2.264       .  S
H595        C600   1.081       .  S
O596       Mg604   2.118       .  S
O596        C599   1.239       .  S
H597        C599   1.081       .  S
H598        C601   1.080       .  S
O603       Mg610   2.294       .  S
C606        O611   1.276       .  A
C606       C1218   1.483       .  S
O607        C608   1.274       .  A
C608       C2293   1.499       .  S
O613       Mg615   2.142       .  S
O613       Mg621   2.139   1_556  S
O613        C648   1.239       .  S
C614        O627   1.239   1_545  S
C614        O651   1.273   1_455  A
C614        H653   1.080       .  S
Mg615       O644   2.141   1_565  S
Mg615       O659   2.350       .  S
Mg615       O655   2.271       .  S
Mg615       O626   2.302       .  S
O616       Mg658   2.130   1_565  S
O616       Mg641   2.144       .  S
O616        C637   1.239       .  S
O617        C648   1.273   1_654  A
O617       Mg641   2.303       .  S
C618        O620   1.271   1_655  A
C618        O632   1.279       .  A
C618       C1541   1.481       .  S
O619        C647   1.273       .  A
O619       Mg621   2.304   1_545  S
O620       Mg652   2.255       .  S
Mg621       O627   2.142       .  S
Mg621       O635   2.262       .  S
Mg621       O623   2.319       .  S
C622        O660   1.272   1_554  A
C622        O628   1.277       .  A
C622       C2050   1.484       .  S
O623        C630   1.276       .  A
H624        C637   1.082       .  S
C625        O639   1.239       .  S
C625        O640   1.274   1_655  A
C625        H650   1.081       .  S
O626        C649   1.272   1_465  A
O627       Mg641   2.148   1_455  S
O628       Mg658   2.339       .  S
C629        O642   1.270       .  A
C629        O634   1.283   1_545  A
C629       C1445   1.507       .  S
C630        O657   1.276   1_455  A
C630       C1781   1.482       .  S
Mg631       O638   2.133       .  S
Mg631       O639   2.131   1_556  S
Mg631       O632   2.345       .  S
Mg631       O633   2.308       .  S
Mg631       O660   2.257       .  S
O633        C637   1.274   1_546  A
O634       Mg641   2.369       .  S
O635        C654   1.272   1_554  A
O636        C656   1.277       .  A
O636       Mg652   2.329       .  S
O638       Mg652   2.131   1_655  S
O638        C649   1.238       .  S
O639       Mg658   2.143       .  S
O640       Mg652   2.310   1_554  S
Mg641       O657   2.284       .  S
O642       Mg658   2.245       .  S
H643        C648   1.081       .  S
O644       Mg652   2.140       .  S
O644        C647   1.239   1_556  S
H645        C647   1.082       .  S
H646        C649   1.082       .  S
O651       Mg658   2.302       .  S
C654        O659   1.280       .  A
C654       C1685   1.482       .  S
O655        C656   1.274   1_565  A
C656       C2117   1.484       .  S
O661       Mg663   2.133       .  S
O661       Mg669   2.129       .  S
O661        C696   1.237       .  S
C662        O675   1.240   1_565  S
C662        O699   1.274       .  A
C662        H701   1.081       .  S
Mg663       O692   2.131   1_545  S
Mg663       O707   2.324       .  S
Mg663       O703   2.245       .  S
Mg663       O674   2.300       .  S
O664       Mg706   2.132       .  S
O664       Mg689   2.137   1_565  S
O664        C685   1.238   1_565  S
O665        C696   1.272       .  A
O665       Mg689   2.306       .  S
C666        O668   1.271       .  A
C666        O680   1.278       .  A
C666       C2165   1.499       .  S
O667        C695   1.273       .  A
O667       Mg669   2.307   1_565  S
O668       Mg700   2.265       .  S
Mg669       O675   2.151       .  S
Mg669       O683   2.273       .  S
Mg669       O671   2.333       .  S
C670        O708   1.274       .  A
C670        O676   1.276       .  A
C670       C2309   1.484       .  S
O671        C678   1.277       .  A
H672        C685   1.083       .  S
C673        O687   1.239       .  S
C673        O688   1.273       .  A
C673        H698   1.081       .  S
O674        C697   1.272   1_545  A
O675       Mg689   2.143       .  S
O676       Mg706   2.333       .  S
C677        O690   1.267       .  A
C677        O682   1.279   1_565  A
C677       C2466   1.496       .  S
C678        O705   1.273       .  A
C678       C1618   1.483       .  S
Mg679       O686   2.133       .  S
Mg679       O687   2.130       .  S
Mg679       O680   2.314       .  S
Mg679       O681   2.305       .  S
Mg679       O708   2.279       .  S
O681        C685   1.273   1_565  A
O682       Mg689   2.334       .  S
O683        C702   1.274       .  A
O684        C704   1.276       .  A
O684       Mg700   2.325       .  S
O686       Mg700   2.142       .  S
O686        C697   1.238       .  S
O687       Mg706   2.125       .  S
O688       Mg700   2.300       .  S
Mg689       O705   2.262       .  S
O690       Mg706   2.231       .  S
H691        C696   1.081       .  S
O692       Mg700   2.144       .  S
O692        C695   1.239       .  S
H693        C695   1.084       .  S
H694        C697   1.081       .  S
O699       Mg706   2.310       .  S
C702        O707   1.275       .  A
C702       C1205   1.477       .  S
O703        C704   1.273   1_545  A
C704       C1266   1.491       .  S
C709        C710   1.535       .  S
C709        C715   1.531       .  S
C709        C713   1.545       .  S
C709       C1589   1.539       .  S
C710        H717   1.083       .  S
C710        C711   1.357       .  D
C711        C712   1.545       .  S
C711       C1202   1.484       .  S
C712        C716   1.547       .  S
C712        C714   1.542       .  S
C712        H718   1.110       .  S
C713        H719   1.083       .  S
C713        C714   1.375       .  D
C714       C1333   1.500       .  S
C715        H720   1.085       .  S
C715        C716   1.360       .  D
C716       C1234   1.483       .  S
O721       Mg723   2.135       .  S
O721       Mg729   2.149       .  S
O721        C756   1.237       .  S
C722        O735   1.237       .  S
C722        O759   1.269   1_545  A
C722        H761   1.082       .  S
Mg723       O752   2.135   1_545  S
Mg723       O767   2.269       .  S
Mg723       O763   2.269   1_545  S
Mg723       O734   2.301   1_544  S
O724       Mg766   2.155   1_545  S
O724       Mg749   2.125       .  S
O724        C745   1.238       .  S
O725        C756   1.270   1_556  A
O725       Mg749   2.295       .  S
C726        O728   1.273       .  A
C726        O740   1.279       .  A
C726       C1170   1.497       .  S
O727        C755   1.272       .  A
O727       Mg729   2.300   1_565  S
O728       Mg760   2.265   1_556  S
Mg729       O735   2.115       .  S
Mg729       O743   2.250       .  S
Mg729       O731   2.296       .  S
C730        O768   1.273       .  A
C730        O736   1.273       .  A
C730       C2453   1.482       .  S
O731        C738   1.275       .  A
H732        C745   1.081       .  S
C733        O747   1.238       .  S
C733        O748   1.273   1_556  A
C733        H758   1.081       .  S
O734        C757   1.272       .  A
O735       Mg749   2.149   1_554  S
O736       Mg766   2.285       .  S
C737        O750   1.276       .  A
C737        O742   1.277       .  A
C737       C2037   1.495       .  S
C738        O765   1.273       .  A
C738       C1186   1.481       .  S
Mg739       O746   2.134       .  S
Mg739       O747   2.156       .  S
Mg739       O740   2.323       .  S
Mg739       O741   2.298   1_565  S
Mg739       O768   2.269       .  S
O741        C745   1.272       .  A
O742       Mg749   2.302       .  S
O743        C762   1.270       .  A
O744        C764   1.280       .  A
O744       Mg760   2.343       .  S
O746       Mg760   2.138   1_556  S
O746        C757   1.238       .  S
O747       Mg766   2.156       .  S
O748       Mg760   2.309       .  S
Mg749       O765   2.271   1_556  S
O750       Mg766   2.304   1_545  S
H751        C756   1.081       .  S
O752       Mg760   2.122       .  S
O752        C755   1.239       .  S
H753        C755   1.083       .  S
H754        C757   1.082       .  S
O759       Mg766   2.287   1_554  S
C762        O767   1.270       .  A
C762       C1250   1.481       .  S
O763        C764   1.271       .  A
C764       C1669   1.482       .  S
C769        C770   1.534       .  S
C769        C775   1.531       .  S
C769        C773   1.553       .  S
C769       C1189   1.548       .  S
C770        H777   1.087       .  S
C770        C771   1.360       .  D
C771        C772   1.544       .  S
C771       C1349   1.486       .  S
C772        C776   1.543       .  S
C772        C774   1.541       .  S
C772        H778   1.111       .  S
C773        H779   1.074       .  S
C773        C774   1.373       .  D
C774       C1157   1.487       .  S
C775        H780   1.088       .  S
C775        C776   1.360       .  D
C776       C1509   1.484       .  S
O781       Mg783   2.145       .  S
O781       Mg789   2.139       .  S
O781        C816   1.238       .  S
C782        O795   1.239       .  S
C782        O819   1.273   1_556  A
C782        H821   1.080       .  S
Mg783       O812   2.128       .  S
Mg783       O827   2.326       .  S
Mg783       O823   2.275       .  S
Mg783       O794   2.303       .  S
O784       Mg826   2.140       .  S
O784       Mg809   2.126       .  S
O784        C805   1.238       .  S
O785        C816   1.273   1_554  A
O785       Mg809   2.305       .  S
C786        O788   1.270   1_554  A
C786        O800   1.277       .  A
C786       C2197   1.473       .  S
O787        C815   1.273       .  A
O787       Mg789   2.308       .  S
O788       Mg820   2.238       .  S
Mg789       O795   2.147       .  S
Mg789       O803   2.268       .  S
Mg789       O791   2.345       .  S
C790        O828   1.273       .  A
C790        O796   1.276       .  A
C790       C1861   1.476       .  S
O791        C798   1.280       .  A
H792        C805   1.080       .  S
C793        O807   1.239       .  S
C793        O808   1.271   1_554  A
C793        H818   1.081       .  S
O794        C817   1.272   1_556  A
O795       Mg809   2.141   1_556  S
O796       Mg826   2.310       .  S
C797        O810   1.272       .  A
C797        O802   1.278       .  A
C797       C1154   1.490       .  S
C798        O825   1.270   1_556  A
C798       C1301   1.497       .  S
Mg799       O806   2.134       .  S
Mg799       O807   2.153       .  S
Mg799       O800   2.322       .  S
Mg799       O801   2.295       .  S
Mg799       O828   2.267       .  S
O801        C805   1.271       .  A
O802       Mg809   2.329       .  S
O803        C822   1.274       .  A
O804        C824   1.274       .  A
O804       Mg820   2.316       .  S
O806       Mg820   2.139   1_554  S
O806        C817   1.238       .  S
O807       Mg826   2.130       .  S
O808       Mg820   2.294       .  S
Mg809       O825   2.246       .  S
O810       Mg826   2.267       .  S
H811        C816   1.081       .  S
O812       Mg820   2.133       .  S
O812        C815   1.238       .  S
H813        C815   1.081       .  S
H814        C817   1.081       .  S
O819       Mg826   2.304       .  S
C822        O827   1.277       .  A
C822       C1989   1.478       .  S
O823        C824   1.274       .  A
C824       C1138   1.476       .  S
O829       Mg831   2.142       .  S
O829       Mg837   2.142       .  S
O829        C864   1.238       .  S
C830        O843   1.239       .  S
C830        O867   1.273       .  A
C830        H869   1.081       .  S
Mg831       O860   2.141       .  S
Mg831       O875   2.325       .  S
Mg831       O871   2.276       .  S
Mg831       O842   2.301   1_455  S
O832       Mg874   2.144       .  S
O832       Mg857   2.145       .  S
O832        C853   1.239       .  S
O833        C864   1.272   1_655  A
O833       Mg857   2.300       .  S
C834        O836   1.274       .  A
C834        O848   1.279       .  A
C834       C2341   1.482       .  S
O835        C863   1.272       .  A
O835       Mg837   2.300       .  S
O836       Mg868   2.279       .  S
Mg837       O843   2.137       .  S
Mg837       O851   2.285       .  S
Mg837       O839   2.324       .  S
C838        O876   1.272       .  A
C838        O844   1.275       .  A
C838       C1941   1.497       .  S
O839        C846   1.280       .  A
H840        C853   1.081       .  S
C841        O855   1.238       .  S
C841        O856   1.272       .  A
C841        H866   1.081       .  S
O842        C865   1.273       .  A
O843       Mg857   2.150   1_455  S
O844       Mg874   2.291       .  S
C845        O858   1.270       .  A
C845        O850   1.277       .  A
C845       C1394   1.475       .  S
C846        O873   1.275       .  A
C846       C1125   1.494       .  S
Mg847       O854   2.128       .  S
Mg847       O855   2.147       .  S
Mg847       O848   2.337       .  S
Mg847       O849   2.310       .  S
Mg847       O876   2.280       .  S
O849        C853   1.274       .  A
O850       Mg857   2.322       .  S
O851        C870   1.275       .  A
O852        C872   1.279   1_655  A
O852       Mg868   2.317       .  S
O854       Mg868   2.142       .  S
O854        C865   1.240       .  S
O855       Mg874   2.132       .  S
O856       Mg868   2.298       .  S
Mg857       O873   2.289   1_655  S
O858       Mg874   2.268       .  S
H859        C864   1.081       .  S
O860       Mg868   2.138   1_455  S
O860        C863   1.238       .  S
H861        C863   1.082       .  S
H862        C865   1.081       .  S
O867       Mg874   2.304   1_455  S
C870        O875   1.277       .  A
C870       C1826   1.479       .  S
O871        C872   1.273       .  A
C872       C1106   1.499       .  S
O877       Mg879   2.122       .  S
O877       Mg885   2.145   1_655  S
O877        C912   1.237       .  S
C878        O891   1.241       .  S
C878        O915   1.274       .  A
C878        H917   1.082       .  S
Mg879       O908   2.152       .  S
Mg879       O923   2.314       .  S
Mg879       O919   2.243       .  S
Mg879       O890   2.297   1_556  S
O880       Mg922   2.141       .  S
O880       Mg905   2.134       .  S
O880        C901   1.239       .  S
O881        C912   1.271   1_554  A
O881       Mg905   2.299   1_655  S
C882        O884   1.274       .  A
C882        O896   1.282   1_655  A
C882       C1765   1.491       .  S
O883        C911   1.271   1_455  A
O883       Mg885   2.301       .  S
O884       Mg916   2.274       .  S
Mg885       O891   2.138       .  S
Mg885       O899   2.287   1_455  S
Mg885       O887   2.319       .  S
C886        O924   1.278       .  A
C886        O892   1.273       .  A
C886       C1090   1.502       .  S
O887        C894   1.277       .  A
H888        C901   1.081       .  S
C889        O903   1.236       .  S
C889        O904   1.269       .  A
C889        H914   1.081       .  S
O890        C913   1.271       .  A
O891       Mg905   2.146   1_556  S
O892       Mg922   2.301       .  S
C893        O906   1.268       .  A
C893        O898   1.274       .  A
C893       C1282   1.474       .  S
C894        O921   1.271       .  A
C894       C1525   1.475       .  S
Mg895       O902   2.130   1_455  S
Mg895       O903   2.135       .  S
Mg895       O896   2.338       .  S
Mg895       O897   2.304       .  S
Mg895       O924   2.291       .  S
O897        C901   1.273       .  A
O898       Mg905   2.287       .  S
O899        C918   1.274       .  A
O900        C920   1.276       .  A
O900       Mg916   2.298   1_556  S
O902       Mg916   2.150       .  S
O902        C913   1.238       .  S
O903       Mg922   2.109       .  S
O904       Mg916   2.286   1_455  S
Mg905       O921   2.270   1_554  S
O906       Mg922   2.244       .  S
H907        C912   1.081       .  S
O908       Mg916   2.147   1_556  S
O908        C911   1.237       .  S
H909        C911   1.082       .  S
H910        C913   1.081       .  S
O915       Mg922   2.306   1_556  S
C918        O923   1.277       .  A
C918       C2357   1.493       .  S
O919        C920   1.269       .  A
C920       C2178   1.479       .  S
C925        C926   1.525       .  S
C925        C931   1.519       .  S
C925        C929   1.563       .  S
C925       C1733   1.541       .  S
C926        H933   1.087       .  S
C926        C927   1.359       .  D
C927        C928   1.550       .  S
C927       C1122   1.491       .  S
C928        C932   1.546       .  S
C928        C930   1.547       .  S
C928        H934   1.106       .  S
C929        H935   1.082       .  S
C929        C930   1.382       .  D
C930       C1317   1.508       .  S
C931        H936   1.087       .  S
C931        C932   1.355       .  D
C932       C1093   1.479       .  S
O937       Mg939   2.137       .  S
O937       Mg945   2.137       .  S
O937        C972   1.239       .  S
C938        O951   1.237       .  S
C938        O975   1.271       .  A
C938        H977   1.081       .  S
Mg939       O968   2.140       .  S
Mg939       O983   2.345       .  S
Mg939       O979   2.262       .  S
Mg939       O950   2.305       .  S
O940       Mg982   2.146       .  S
O940       Mg965   2.120       .  S
O940        C961   1.237       .  S
O941        C972   1.272       .  A
O941       Mg965   2.303       .  S
C942        O944   1.271       .  A
C942        O956   1.273       .  A
C942       C1925   1.467       .  S
O943        C971   1.272       .  A
O943       Mg945   2.301       .  S
O944       Mg976   2.248       .  S
Mg945       O951   2.148       .  S
Mg945       O959   2.274       .  S
Mg945       O947   2.338       .  S
C946        O984   1.271       .  A
C946        O952   1.275       .  A
C946       C1877   1.472       .  S
O947        C954   1.278       .  A
H948        C961   1.081       .  S
C949        O963   1.239       .  S
C949        O964   1.272       .  A
C949        H974   1.082       .  S
O950        C973   1.273       .  A
O951       Mg965   2.142       .  S
O952       Mg982   2.307       .  S
C953        O966   1.272       .  A
C953        O958   1.276       .  A
C953       C2149   1.479       .  S
C954        O981   1.269       .  A
C954       C1813   1.470       .  S
Mg955       O962   2.137       .  S
Mg955       O963   2.145       .  S
Mg955       O956   2.302       .  S
Mg955       O957   2.289       .  S
Mg955       O984   2.250       .  S
O957        C961   1.270       .  A
O958       Mg965   2.329       .  S
O959        C978   1.275       .  A
O960        C980   1.275       .  A
O960       Mg976   2.314       .  S
O962       Mg976   2.138       .  S
O962        C973   1.239       .  S
O963       Mg982   2.126       .  S
O964       Mg976   2.301       .  S
Mg965       O981   2.219       .  S
O966       Mg982   2.256       .  S
H967        C972   1.081       .  S
O968       Mg976   2.134       .  S
O968        C971   1.238       .  S
H969        C971   1.081       .  S
H970        C973   1.080       .  S
O975       Mg982   2.296       .  S
C978        O983   1.279       .  A
C978       C2005   1.483       .  S
O979        C980   1.274       .  A
C980       C1602   1.479       .  S
C985        C986   1.531   1_655  S
C985        C991   1.525       .  S
C985        C989   1.556       .  S
C985       C1221   1.547       .  S
C986        H993   1.086       .  S
C986        C987   1.355       .  D
C987        C988   1.547   1_455  S
C987       C1074   1.489       .  S
C988        C992   1.542       .  S
C988        C990   1.547       .  S
C988        H994   1.107       .  S
C989        H995   1.081       .  S
C989        C990   1.382       .  D
C990       C1109   1.501       .  S
C991        H996   1.087       .  S
C991        C992   1.360       .  D
C992       C2581   1.485       .  S
O997       Mg999   2.138       .  S
O997      Mg1005   2.142       .  S
O997       C1032   1.240       .  S
C998       O1011   1.238       .  S
C998       O1035   1.271       .  A
C998       H1037   1.082       .  S
Mg999      O1028   2.127       .  S
Mg999      O1043   2.301       .  S
Mg999      O1039   2.261       .  S
Mg999      O1010   2.305       .  S
O1000     Mg1042   2.130       .  S
O1000     Mg1025   2.123       .  S
O1000      C1021   1.239       .  S
O1001      C1032   1.275       .  A
O1001     Mg1025   2.309       .  S
C1002      O1004   1.269       .  A
C1002      O1016   1.275       .  A
C1002      C1058   1.475       .  S
O1003      C1031   1.273       .  A
O1003     Mg1005   2.303       .  S
O1004     Mg1036   2.226       .  S
Mg1005     O1011   2.132       .  S
Mg1005     O1019   2.282       .  S
Mg1005     O1007   2.343       .  S
C1006      O1044   1.271       .  A
C1006      O1012   1.276       .  A
C1006      C1957   1.471       .  S
O1007      C1014   1.279       .  A
H1008      C1021   1.082       .  S
C1009      O1023   1.237       .  S
C1009      O1024   1.271       .  A
C1009      H1034   1.081       .  S
O1010      C1033   1.273       .  A
O1011     Mg1025   2.128       .  S
O1012     Mg1042   2.327       .  S
C1013      O1026   1.274       .  A
C1013      O1018   1.277       .  A
C1013      C1797   1.481       .  S
C1014      O1041   1.271       .  A
C1014      C1077   1.496       .  S
Mg1015     O1022   2.140       .  S
Mg1015     O1023   2.134       .  S
Mg1015     O1016   2.310       .  S
Mg1015     O1017   2.298       .  S
Mg1015     O1044   2.252       .  S
O1017      C1021   1.272       .  A
O1018     Mg1025   2.341       .  S
O1019      C1038   1.276       .  A
O1020      C1040   1.275       .  A
O1020     Mg1036   2.328       .  S
O1022     Mg1036   2.142       .  S
O1022      C1033   1.239       .  S
O1023     Mg1042   2.128       .  S
O1024     Mg1036   2.299       .  S
Mg1025     O1041   2.227       .  S
O1026     Mg1042   2.254       .  S
H1027      C1032   1.081       .  S
O1028     Mg1036   2.118       .  S
O1028      C1031   1.239       .  S
H1029      C1031   1.082       .  S
H1030      C1033   1.082       .  S
O1035     Mg1042   2.298       .  S
C1038      O1043   1.273       .  A
C1038      C2069   1.490       .  S
O1039      C1040   1.271       .  A
C1040      C1653   1.478       .  S
C1045      C1046   1.535       .  S
C1045      C1051   1.537       .  S
C1045      C1049   1.538       .  S
C1045      C1061   1.535       .  S
C1046      H1053   1.086       .  S
C1046      C1047   1.367       .  D
C1047      C1048   1.547       .  S
C1047      C1173   1.495       .  S
C1048      C1052   1.539       .  S
C1048      C1050   1.543       .  S
C1048      H1054   1.108       .  S
C1049      H1055   1.083       .  S
C1049      C1050   1.368       .  D
C1050      C2533   1.488       .  S
C1051      H1056   1.082       .  S
C1051      C1052   1.356       .  D
C1052      C1141   1.482       .  S
C1057      H1064   1.085       .  S
C1057      C1058   1.403       .  A
C1057      C1062   1.400       .  A
C1058      C1059   1.408       .  A
C1059      C1066   1.508       .  S
C1059      C1060   1.401       .  A
C1060      H1065   1.078       .  S
C1060      C1061   1.414       .  A
C1061      C1062   1.420       .  A
C1062      C1063   1.509       .  S
C1063      H1067   1.111       .  S
C1063      H1068   1.105       .  S
C1063      H1069   1.110       .  S
C1066      H1070   1.110       .  S
C1066      H1071   1.111       .  S
C1066      H1072   1.111       .  S
C1073      H1080   1.085       .  S
C1073      C1074   1.407       .  A
C1073      C1078   1.407       .  A
C1074      C1075   1.409       .  A
C1075      C1082   1.499       .  S
C1075      C1076   1.400       .  A
C1076      H1081   1.084       .  S
C1076      C1077   1.409       .  A
C1077      C1078   1.419       .  A
C1078      C1079   1.507       .  S
C1079      H1083   1.111       .  S
C1079      H1084   1.109       .  S
C1079      H1085   1.111       .  S
C1082      H1086   1.102       .  S
C1082      H1087   1.109       .  S
C1082      H1088   1.111       .  S
C1089      H1096   1.083       .  S
C1089      C1090   1.410       .  A
C1089      C1094   1.405       .  A
C1090      C1091   1.428       .  A
C1091      C1098   1.509       .  S
C1091      C1092   1.408       .  A
C1092      H1097   1.085       .  S
C1092      C1093   1.398       .  A
C1093      C1094   1.409       .  A
C1094      C1095   1.507       .  S
C1095      H1099   1.111       .  S
C1095      H1100   1.107       .  S
C1095      H1101   1.110       .  S
C1098      H1102   1.110       .  S
C1098      H1103   1.110       .  S
C1098      H1104   1.111       .  S
C1105      H1112   1.084       .  S
C1105      C1106   1.406   1_655  A
C1105      C1110   1.404       .  A
C1106      C1107   1.422       .  A
C1107      C1114   1.508       .  S
C1107      C1108   1.410       .  A
C1108      H1113   1.084       .  S
C1108      C1109   1.406   1_455  A
C1109      C1110   1.417       .  A
C1110      C1111   1.508       .  S
C1111      H1115   1.111       .  S
C1111      H1116   1.106       .  S
C1111      H1117   1.103       .  S
C1114      H1118   1.110       .  S
C1114      H1119   1.110       .  S
C1114      H1120   1.111       .  S
C1121      H1128   1.084       .  S
C1121      C1122   1.402       .  A
C1121      C1126   1.413       .  A
C1122      C1123   1.421       .  A
C1123      C1130   1.511       .  S
C1123      C1124   1.400       .  A
C1124      H1129   1.085       .  S
C1124      C1125   1.402       .  A
C1125      C1126   1.421       .  A
C1126      C1127   1.506       .  S
C1127      H1131   1.111       .  S
C1127      H1132   1.111       .  S
C1127      H1133   1.109       .  S
C1130      H1134   1.110       .  S
C1130      H1135   1.107       .  S
C1130      H1136   1.111       .  S
C1137      H1144   1.084       .  S
C1137      C1138   1.407       .  A
C1137      C1142   1.410       .  A
C1138      C1139   1.409       .  A
C1139      C1146   1.507       .  S
C1139      C1140   1.400       .  A
C1140      H1145   1.085       .  S
C1140      C1141   1.405       .  A
C1141      C1142   1.408       .  A
C1142      C1143   1.505       .  S
C1143      H1147   1.111       .  S
C1143      H1148   1.111       .  S
C1143      H1149   1.110       .  S
C1146      H1150   1.110       .  S
C1146      H1151   1.110       .  S
C1146      H1152   1.111       .  S
C1153      H1160   1.084       .  S
C1153      C1154   1.406       .  A
C1153      C1158   1.407       .  A
C1154      C1155   1.420       .  A
C1155      C1162   1.508       .  S
C1155      C1156   1.406       .  A
C1156      H1161   1.084       .  S
C1156      C1157   1.401       .  A
C1157      C1158   1.412       .  A
C1158      C1159   1.503       .  S
C1159      H1163   1.111       .  S
C1159      H1164   1.109       .  S
C1159      H1165   1.109       .  S
C1162      H1166   1.109       .  S
C1162      H1167   1.111       .  S
C1162      H1168   1.111       .  S
C1169      H1176   1.084       .  S
C1169      C1170   1.408       .  A
C1169      C1174   1.407       .  A
C1170      C1171   1.421       .  A
C1171      C1178   1.509       .  S
C1171      C1172   1.405       .  A
C1172      H1177   1.084       .  S
C1172      C1173   1.405       .  A
C1173      C1174   1.415       .  A
C1174      C1175   1.505       .  S
C1175      H1179   1.111       .  S
C1175      H1180   1.105       .  S
C1175      H1181   1.107       .  S
C1178      H1182   1.110       .  S
C1178      H1183   1.110       .  S
C1178      H1184   1.111       .  S
C1185      H1192   1.084       .  S
C1185      C1186   1.403       .  A
C1185      C1190   1.412       .  A
C1186      C1187   1.408       .  A
C1187      C1194   1.510       .  S
C1187      C1188   1.396       .  A
C1188      H1193   1.084       .  S
C1188      C1189   1.416       .  A
C1189      C1190   1.427       .  A
C1190      C1191   1.501       .  S
C1191      H1195   1.111       .  S
C1191      H1196   1.109       .  S
C1191      H1197   1.110       .  S
C1194      H1198   1.111       .  S
C1194      H1199   1.109       .  S
C1194      H1200   1.111       .  S
C1201      H1208   1.084       .  S
C1201      C1202   1.402       .  A
C1201      C1206   1.410       .  A
C1202      C1203   1.419       .  A
C1203      C1210   1.511       .  S
C1203      C1204   1.402       .  A
C1204      H1209   1.084       .  S
C1204      C1205   1.398       .  A
C1205      C1206   1.414       .  A
C1206      C1207   1.505       .  S
C1207      H1211   1.111       .  S
C1207      H1212   1.110       .  S
C1207      H1213   1.110       .  S
C1210      H1214   1.108       .  S
C1210      H1215   1.107       .  S
C1210      H1216   1.110       .  S
C1217      H1224   1.084       .  S
C1217      C1218   1.403       .  A
C1217      C1222   1.409       .  A
C1218      C1219   1.409   1_655  A
C1219      C1226   1.512       .  S
C1219      C1220   1.398       .  A
C1220      H1225   1.078       .  S
C1220      C1221   1.419   1_455  A
C1221      C1222   1.426       .  A
C1222      C1223   1.506       .  S
C1223      H1227   1.111       .  S
C1223      H1228   1.104       .  S
C1223      H1229   1.106       .  S
C1226      H1230   1.110       .  S
C1226      H1231   1.110       .  S
C1226      H1232   1.111       .  S
C1233      H1240   1.084       .  S
C1233      C1234   1.400       .  A
C1233      C1238   1.407       .  A
C1234      C1235   1.411       .  A
C1235      C1242   1.508       .  S
C1235      C1236   1.405       .  A
C1236      H1241   1.084       .  S
C1236      C1237   1.409       .  A
C1237      C1238   1.423       .  A
C1238      C1239   1.508       .  S
C1239      H1243   1.111       .  S
C1239      H1244   1.110       .  S
C1239      H1245   1.110       .  S
C1242      H1246   1.108       .  S
C1242      H1247   1.111       .  S
C1242      H1248   1.111       .  S
C1249      H1256   1.084       .  S
C1249      C1250   1.405       .  A
C1249      C1254   1.406       .  A
C1250      C1251   1.411       .  A
C1251      C1258   1.513   1_545  S
C1251      C1252   1.394       .  A
C1252      H1257   1.081   1_545  S
C1252      C1253   1.416       .  A
C1253      C1254   1.424       .  A
C1254      C1255   1.506       .  S
C1255      H1259   1.111       .  S
C1255      H1260   1.108       .  S
C1255      H1261   1.108       .  S
C1258      H1262   1.110       .  S
C1258      H1263   1.110   1_565  S
C1258      H1264   1.111       .  S
C1265      H1272   1.084       .  S
C1265      C1266   1.405   1_545  A
C1265      C1270   1.396       .  A
C1266      C1267   1.420       .  A
C1267      C1274   1.506       .  S
C1267      C1268   1.411       .  A
C1268      H1273   1.083       .  S
C1268      C1269   1.403   1_565  A
C1269      C1270   1.408       .  A
C1270      C1271   1.500       .  S
C1271      H1275   1.111       .  S
C1271      H1276   1.104       .  S
C1271      H1277   1.108       .  S
C1274      H1278   1.110       .  S
C1274      H1279   1.110       .  S
C1274      H1280   1.111       .  S
C1281      H1288   1.086       .  S
C1281      C1282   1.392       .  A
C1281      C1286   1.394       .  A
C1282      C1283   1.414       .  A
C1283      C1290   1.508       .  S
C1283      C1284   1.407       .  A
C1284      H1289   1.079       .  S
C1284      C1285   1.408       .  A
C1285      C1286   1.435       .  A
C1286      C1287   1.517       .  S
C1287      H1291   1.111       .  S
C1287      H1292   1.100       .  S
C1287      H1293   1.111   1_554  S
C1290      H1294   1.110       .  S
C1290      H1295   1.110       .  S
C1290      H1296   1.111       .  S
C1297      H1304   1.082       .  S
C1297      C1298   1.404       .  A
C1297      C1302   1.401       .  A
C1298      C1299   1.418   1_554  A
C1299      C1306   1.508       .  S
C1299      C1300   1.412       .  A
C1300      H1305   1.083       .  S
C1300      C1301   1.409       .  A
C1301      C1302   1.420   1_556  A
C1302      C1303   1.511       .  S
C1303      H1307   1.111       .  S
C1303      H1308   1.109       .  S
C1303      H1309   1.111       .  S
C1306      H1310   1.107       .  S
C1306      H1311   1.110       .  S
C1306      H1312   1.111       .  S
C1313      H1320   1.083       .  S
C1313      C1314   1.407       .  A
C1313      C1318   1.405       .  A
C1314      C1315   1.423       .  A
C1315      C1322   1.507       .  S
C1315      C1316   1.416       .  A
C1316      H1321   1.084       .  S
C1316      C1317   1.408       .  A
C1317      C1318   1.419       .  A
C1318      C1319   1.506       .  S
C1319      H1323   1.110       .  S
C1319      H1324   1.104       .  S
C1319      H1325   1.102       .  S
C1322      H1326   1.110       .  S
C1322      H1327   1.110       .  S
C1322      H1328   1.111       .  S
C1329      H1336   1.083       .  S
C1329      C1330   1.412       .  A
C1329      C1334   1.411       .  A
C1330      C1331   1.424       .  A
C1331      C1338   1.510       .  S
C1331      C1332   1.406       .  A
C1332      H1337   1.083       .  S
C1332      C1333   1.404       .  A
C1333      C1334   1.416       .  A
C1334      C1335   1.509       .  S
C1335      H1339   1.111       .  S
C1335      H1340   1.106       .  S
C1335      H1341   1.110       .  S
C1338      H1342   1.109       .  S
C1338      H1343   1.111       .  S
C1338      H1344   1.111       .  S
C1345      H1352   1.084       .  S
C1345      C1346   1.408       .  A
C1345      C1350   1.410       .  A
C1346      C1347   1.422       .  A
C1347      C1354   1.511       .  S
C1347      C1348   1.400       .  A
C1348      H1353   1.084       .  S
C1348      C1349   1.400       .  A
C1349      C1350   1.410       .  A
C1350      C1351   1.502       .  S
C1351      H1355   1.111       .  S
C1351      H1356   1.110       .  S
C1351      H1357   1.109       .  S
C1354      H1358   1.109       .  S
C1354      H1359   1.110       .  S
C1354      H1360   1.111       .  S
C1361      H1368   1.086       .  S
C1361      C1362   1.402       .  A
C1361      C1366   1.398       .  A
C1362      C1363   1.421       .  A
C1363      C1370   1.507       .  S
C1363      C1364   1.410       .  A
C1364      H1369   1.085       .  S
C1364      C1365   1.402       .  A
C1365      C1366   1.423       .  A
C1366      C1367   1.511       .  S
C1367      H1371   1.111       .  S
C1367      H1372   1.110       .  S
C1367      H1373   1.102       .  S
C1370      H1374   1.111       .  S
C1370      H1375   1.109       .  S
C1370      H1376   1.111       .  S
C1377      H1384   1.084       .  S
C1377      C1378   1.397       .  A
C1377      C1382   1.397       .  A
C1378      C1379   1.418       .  A
C1379      C1386   1.508       .  S
C1379      C1380   1.404       .  A
C1380      H1385   1.084       .  S
C1380      C1381   1.398       .  A
C1381      C1382   1.418       .  A
C1382      C1383   1.510       .  S
C1383      H1387   1.111       .  S
C1383      H1388   1.108       .  S
C1383      H1389   1.106       .  S
C1386      H1390   1.111       .  S
C1386      H1391   1.109       .  S
C1386      H1392   1.111       .  S
C1393      H1400   1.084       .  S
C1393      C1394   1.400       .  A
C1393      C1398   1.409       .  A
C1394      C1395   1.409   1_655  A
C1395      C1402   1.507       .  S
C1395      C1396   1.403       .  A
C1396      H1401   1.084       .  S
C1396      C1397   1.407   1_455  A
C1397      C1398   1.419       .  A
C1398      C1399   1.503       .  S
C1399      H1403   1.111       .  S
C1399      H1404   1.108       .  S
C1399      H1405   1.103       .  S
C1402      H1406   1.111       .  S
C1402      H1407   1.110       .  S
C1402      H1408   1.111       .  S
C1409      H1416   1.084       .  S
C1409      C1410   1.406   1_455  A
C1409      C1414   1.405       .  A
C1410      C1411   1.418       .  A
C1411      C1418   1.508       .  S
C1411      C1412   1.406       .  A
C1412      H1417   1.083       .  S
C1412      C1413   1.402   1_655  A
C1413      C1414   1.410       .  A
C1414      C1415   1.506       .  S
C1415      H1419   1.111       .  S
C1415      H1420   1.110       .  S
C1415      H1421   1.109       .  S
C1418      H1422   1.109       .  S
C1418      H1423   1.111       .  S
C1418      H1424   1.111       .  S
C1425      H1432   1.073       .  S
C1425      C1426   1.410       .  A
C1425      C1430   1.400       .  A
C1426      C1427   1.432       .  A
C1427      C1434   1.515       .  S
C1427      C1428   1.403       .  A
C1428      H1433   1.084       .  S
C1428      C1429   1.397       .  A
C1429      C1430   1.413       .  A
C1430      C1431   1.511       .  S
C1431      H1435   1.111       .  S
C1431      H1436   1.111       .  S
C1431      H1437   1.109       .  S
C1434      H1438   1.104       .  S
C1434      H1439   1.106       .  S
C1434      H1440   1.111       .  S
C1441      H1448   1.084       .  S
C1441      C1442   1.399       .  A
C1441      C1446   1.400       .  A
C1442      C1443   1.414   1_545  A
C1443      C1450   1.506       .  S
C1443      C1444   1.415       .  A
C1444      H1449   1.084       .  S
C1444      C1445   1.413   1_565  A
C1445      C1446   1.427       .  A
C1446      C1447   1.512       .  S
C1447      H1451   1.111       .  S
C1447      H1452   1.110       .  S
C1447      H1453   1.110       .  S
C1450      H1454   1.109       .  S
C1450      H1455   1.108       .  S
C1450      H1456   1.111       .  S
C1457      H1464   1.084       .  S
C1457      C1458   1.404       .  A
C1457      C1462   1.409       .  A
C1458      C1459   1.408       .  A
C1459      C1466   1.512   1_545  S
C1459      C1460   1.397       .  A
C1460      H1465   1.080   1_545  S
C1460      C1461   1.419       .  A
C1461      C1462   1.425       .  A
C1462      C1463   1.507       .  S
C1463      H1467   1.111       .  S
C1463      H1468   1.108       .  S
C1463      H1469   1.106       .  S
C1466      H1470   1.111   1_565  S
C1466      H1471   1.109       .  S
C1466      H1472   1.111       .  S
C1473      H1480   1.085       .  S
C1473      C1474   1.397       .  A
C1473      C1478   1.398       .  A
C1474      C1475   1.415       .  A
C1475      C1482   1.506       .  S
C1475      C1476   1.409       .  A
C1476      H1481   1.084       .  S
C1476      C1477   1.401       .  A
C1477      C1478   1.419       .  A
C1478      C1479   1.508       .  S
C1479      H1483   1.111       .  S
C1479      H1484   1.105       .  S
C1479      H1485   1.110       .  S
C1482      H1486   1.110       .  S
C1482      H1487   1.110       .  S
C1482      H1488   1.111       .  S
C1489      H1496   1.082       .  S
C1489      C1490   1.406       .  A
C1489      C1494   1.405       .  A
C1490      C1491   1.422       .  A
C1491      C1498   1.511       .  S
C1491      C1492   1.404       .  A
C1492      H1497   1.085       .  S
C1492      C1493   1.400       .  A
C1493      C1494   1.411       .  A
C1494      C1495   1.506       .  S
C1495      H1499   1.111       .  S
C1495      H1500   1.109       .  S
C1495      H1501   1.111       .  S
C1498      H1502   1.107       .  S
C1498      H1503   1.109       .  S
C1498      H1504   1.111       .  S
C1505      H1512   1.085       .  S
C1505      C1506   1.401       .  A
C1505      C1510   1.399       .  A
C1506      C1507   1.415       .  A
C1507      C1514   1.505       .  S
C1507      C1508   1.410       .  A
C1508      H1513   1.084       .  S
C1508      C1509   1.405       .  A
C1509      C1510   1.415       .  A
C1510      C1511   1.508       .  S
C1511      H1515   1.111       .  S
C1511      H1516   1.107       .  S
C1511      H1517   1.106       .  S
C1514      H1518   1.110       .  S
C1514      H1519   1.110       .  S
C1514      H1520   1.111       .  S
C1521      H1528   1.085       .  S
C1521      C1522   1.406   1_655  A
C1521      C1526   1.401       .  A
C1522      C1523   1.416       .  A
C1523      C1530   1.502       .  S
C1523      C1524   1.409       .  A
C1524      H1529   1.084       .  S
C1524      C1525   1.402       .  A
C1525      C1526   1.410   1_455  A
C1526      C1527   1.508       .  S
C1527      H1531   1.111       .  S
C1527      H1532   1.110       .  S
C1527      H1533   1.110       .  S
C1530      H1534   1.104       .  S
C1530      H1535   1.108       .  S
C1530      H1536   1.111       .  S
C1537      H1544   1.084       .  S
C1537      C1538   1.403       .  A
C1537      C1542   1.411       .  A
C1538      C1539   1.419       .  A
C1539      C1546   1.510       .  S
C1539      C1540   1.402       .  A
C1540      H1545   1.084       .  S
C1540      C1541   1.400       .  A
C1541      C1542   1.415       .  A
C1542      C1543   1.506       .  S
C1543      H1547   1.111       .  S
C1543      H1548   1.111   1_655  S
C1543      H1549   1.110       .  S
C1546      H1550   1.107   1_655  S
C1546      H1551   1.109       .  S
C1546      H1552   1.111       .  S
C1553      H1560   1.084       .  S
C1553      C1554   1.402       .  A
C1553      C1558   1.406       .  A
C1554      C1555   1.408       .  A
C1555      C1562   1.505       .  S
C1555      C1556   1.408       .  A
C1556      H1561   1.083       .  S
C1556      C1557   1.410       .  A
C1557      C1558   1.421       .  A
C1558      C1559   1.510       .  S
C1559      H1563   1.111       .  S
C1559      H1564   1.108       .  S
C1559      H1565   1.108       .  S
C1562      H1566   1.110       .  S
C1562      H1567   1.110       .  S
C1562      H1568   1.111       .  S
C1569      H1576   1.083       .  S
C1569      C1570   1.411       .  A
C1569      C1574   1.401       .  A
C1570      C1571   1.418       .  A
C1571      C1578   1.508       .  S
C1571      C1572   1.404       .  A
C1572      H1577   1.084       .  S
C1572      C1573   1.407       .  A
C1573      C1574   1.411       .  A
C1574      C1575   1.505       .  S
C1575      H1579   1.111       .  S
C1575      H1580   1.108       .  S
C1575      H1581   1.104       .  S
C1578      H1582   1.110       .  S
C1578      H1583   1.110       .  S
C1578      H1584   1.111       .  S
C1585      H1592   1.085       .  S
C1585      C1586   1.404       .  A
C1585      C1590   1.402       .  A
C1586      C1587   1.414       .  A
C1587      C1594   1.509       .  S
C1587      C1588   1.402       .  A
C1588      H1593   1.079       .  S
C1588      C1589   1.411       .  A
C1589      C1590   1.422       .  A
C1590      C1591   1.510       .  S
C1591      H1595   1.110       .  S
C1591      H1596   1.111       .  S
C1591      H1597   1.106       .  S
C1594      H1598   1.110       .  S
C1594      H1599   1.110       .  S
C1594      H1600   1.111       .  S
C1601      H1608   1.084       .  S
C1601      C1602   1.402       .  A
C1601      C1606   1.407       .  A
C1602      C1603   1.413       .  A
C1603      C1610   1.508       .  S
C1603      C1604   1.403       .  A
C1604      H1609   1.085       .  S
C1604      C1605   1.404       .  A
C1605      C1606   1.416       .  A
C1606      C1607   1.502       .  S
C1607      H1611   1.111       .  S
C1607      H1612   1.110       .  S
C1607      H1613   1.107       .  S
C1610      H1614   1.110       .  S
C1610      H1615   1.109       .  S
C1610      H1616   1.111       .  S
C1617      H1624   1.085       .  S
C1617      C1618   1.398       .  A
C1617      C1622   1.399       .  A
C1618      C1619   1.417       .  A
C1619      C1626   1.506       .  S
C1619      C1620   1.411       .  A
C1620      H1625   1.084       .  S
C1620      C1621   1.402       .  A
C1621      C1622   1.421       .  A
C1622      C1623   1.507       .  S
C1623      H1627   1.111       .  S
C1623      H1628   1.110       .  S
C1623      H1629   1.103       .  S
C1626      H1630   1.109       .  S
C1626      H1631   1.111       .  S
C1626      H1632   1.110       .  S
C1633      H1640   1.074       .  S
C1633      C1634   1.417       .  A
C1633      C1638   1.406       .  A
C1634      C1635   1.425       .  A
C1635      C1642   1.506       .  S
C1635      C1636   1.404       .  A
C1636      H1641   1.084       .  S
C1636      C1637   1.400       .  A
C1637      C1638   1.410       .  A
C1638      C1639   1.509       .  S
C1639      H1643   1.111       .  S
C1639      H1644   1.109       .  S
C1639      H1645   1.112       .  S
C1642      H1646   1.100       .  S
C1642      H1647   1.110       .  S
C1642      H1648   1.111       .  S
C1649      H1656   1.078       .  S
C1649      C1650   1.412       .  A
C1649      C1654   1.413       .  A
C1650      C1651   1.437       .  A
C1651      C1658   1.519       .  S
C1651      C1652   1.400       .  A
C1652      H1657   1.085       .  S
C1652      C1653   1.391       .  A
C1653      C1654   1.410       .  A
C1654      C1655   1.505       .  S
C1655      H1659   1.111       .  S
C1655      H1660   1.111       .  S
C1655      H1661   1.110       .  S
C1658      H1662   1.106       .  S
C1658      H1663   1.105       .  S
C1658      H1664   1.111       .  S
C1665      H1672   1.084       .  S
C1665      C1666   1.410   1_556  A
C1665      C1670   1.404       .  A
C1666      C1667   1.420       .  A
C1667      C1674   1.501       .  S
C1667      C1668   1.413       .  A
C1668      H1673   1.084       .  S
C1668      C1669   1.403       .  A
C1669      C1670   1.409   1_554  A
C1670      C1671   1.508       .  S
C1671      H1675   1.110       .  S
C1671      H1676   1.110       .  S
C1671      H1677   1.110       .  S
C1674      H1678   1.105       .  S
C1674      H1679   1.108       .  S
C1674      H1680   1.111       .  S
C1681      H1688   1.084       .  S
C1681      C1682   1.409       .  A
C1681      C1686   1.400       .  A
C1682      C1683   1.412   1_556  A
C1683      C1690   1.504       .  S
C1683      C1684   1.415       .  A
C1684      H1689   1.084       .  S
C1684      C1685   1.408   1_554  A
C1685      C1686   1.409       .  A
C1686      C1687   1.508       .  S
C1687      H1691   1.111       .  S
C1687      H1692   1.110       .  S
C1687      H1693   1.110   1_556  S
C1690      H1694   1.110   1_554  S
C1690      H1695   1.110       .  S
C1690      H1696   1.111       .  S
C1697      H1704   1.084       .  S
C1697      C1698   1.408       .  A
C1697      C1702   1.411       .  A
C1698      C1699   1.421       .  A
C1699      C1706   1.503       .  S
C1699      C1700   1.407       .  A
C1700      H1705   1.084       .  S
C1700      C1701   1.397       .  A
C1701      C1702   1.413       .  A
C1702      C1703   1.506       .  S
C1703      H1707   1.111       .  S
C1703      H1708   1.111       .  S
C1703      H1709   1.110       .  S
C1706      H1710   1.108       .  S
C1706      H1711   1.104       .  S
C1706      H1712   1.111       .  S
C1713      H1720   1.082       .  S
C1713      C1714   1.411       .  A
C1713      C1718   1.404       .  A
C1714      C1715   1.426       .  A
C1715      C1722   1.509       .  S
C1715      C1716   1.407       .  A
C1716      H1721   1.079       .  S
C1716      C1717   1.398       .  A
C1717      C1718   1.409       .  A
C1718      C1719   1.508       .  S
C1719      H1723   1.111       .  S
C1719      H1724   1.110       .  S
C1719      H1725   1.110       .  S
C1722      H1726   1.110       .  S
C1722      H1727   1.110       .  S
C1722      H1728   1.111       .  S
C1729      H1736   1.084       .  S
C1729      C1730   1.394       .  A
C1729      C1734   1.402       .  A
C1730      C1731   1.417       .  A
C1731      C1738   1.509       .  S
C1731      C1732   1.407       .  A
C1732      H1737   1.076       .  S
C1732      C1733   1.408       .  A
C1733      C1734   1.436       .  A
C1734      C1735   1.516       .  S
C1735      H1739   1.111       .  S
C1735      H1740   1.106       .  S
C1735      H1741   1.105       .  S
C1738      H1742   1.110       .  S
C1738      H1743   1.110       .  S
C1738      H1744   1.111       .  S
C1745      H1752   1.083       .  S
C1745      C1746   1.401       .  A
C1745      C1750   1.407       .  A
C1746      C1747   1.407       .  A
C1747      C1754   1.506       .  S
C1747      C1748   1.406       .  A
C1748      H1753   1.083       .  S
C1748      C1749   1.412       .  A
C1749      C1750   1.423       .  A
C1750      C1751   1.509       .  S
C1751      H1755   1.111       .  S
C1751      H1756   1.109       .  S
C1751      H1757   1.111       .  S
C1754      H1758   1.109       .  S
C1754      H1759   1.111       .  S
C1754      H1760   1.111       .  S
C1761      H1768   1.078   1_655  S
C1761      C1762   1.409       .  A
C1761      C1766   1.411       .  A
C1762      C1763   1.437       .  A
C1763      C1770   1.518       .  S
C1763      C1764   1.405       .  A
C1764      H1769   1.085       .  S
C1764      C1765   1.396       .  A
C1765      C1766   1.417       .  A
C1766      C1767   1.508       .  S
C1767      H1771   1.111   1_655  S
C1767      H1772   1.109       .  S
C1767      H1773   1.111   1_655  S
C1770      H1774   1.105       .  S
C1770      H1775   1.105   1_655  S
C1770      H1776   1.111       .  S
C1777      H1784   1.081       .  S
C1777      C1778   1.408       .  A
C1777      C1782   1.407       .  A
C1778      C1779   1.417   1_455  A
C1779      C1786   1.508       .  S
C1779      C1780   1.409       .  A
C1780      H1785   1.084       .  S
C1780      C1781   1.404   1_655  A
C1781      C1782   1.410       .  A
C1782      C1783   1.506       .  S
C1783      H1787   1.111       .  S
C1783      H1788   1.110       .  S
C1783      H1789   1.111       .  S
C1786      H1790   1.110       .  S
C1786      H1791   1.108       .  S
C1786      H1792   1.110       .  S
C1793      H1800   1.083       .  S
C1793      C1794   1.406       .  A
C1793      C1798   1.413       .  A
C1794      C1795   1.414       .  A
C1795      C1802   1.505       .  S
C1795      C1796   1.397       .  A
C1796      H1801   1.086       .  S
C1796      C1797   1.401       .  A
C1797      C1798   1.413       .  A
C1798      C1799   1.504       .  S
C1799      H1803   1.111       .  S
C1799      H1804   1.110       .  S
C1799      H1805   1.110       .  S
C1802      H1806   1.104       .  S
C1802      H1807   1.110       .  S
C1802      H1808   1.111       .  S
C1809      H1816   1.078       .  S
C1809      C1810   1.416       .  A
C1809      C1814   1.409       .  A
C1810      C1811   1.432       .  A
C1811      C1818   1.513       .  S
C1811      C1812   1.395       .  A
C1812      H1817   1.086       .  S
C1812      C1813   1.392       .  A
C1813      C1814   1.407       .  A
C1814      C1815   1.506       .  S
C1815      H1819   1.111       .  S
C1815      H1820   1.110       .  S
C1815      H1821   1.111       .  S
C1818      H1822   1.096       .  S
C1818      H1823   1.111       .  S
C1818      H1824   1.111       .  S
C1825      H1832   1.085       .  S
C1825      C1826   1.403       .  A
C1825      C1830   1.407       .  A
C1826      C1827   1.410       .  A
C1827      C1834   1.506       .  S
C1827      C1828   1.407       .  A
C1828      H1833   1.083       .  S
C1828      C1829   1.404       .  A
C1829      C1830   1.416       .  A
C1830      C1831   1.508       .  S
C1831      H1835   1.110       .  S
C1831      H1836   1.109       .  S
C1831      H1837   1.108       .  S
C1834      H1838   1.110       .  S
C1834      H1839   1.110       .  S
C1834      H1840   1.111       .  S
C1841      H1848   1.083       .  S
C1841      C1842   1.408       .  A
C1841      C1846   1.404       .  A
C1842      C1843   1.426       .  A
C1843      C1850   1.510       .  S
C1843      C1844   1.407       .  A
C1844      H1849   1.083       .  S
C1844      C1845   1.399       .  A
C1845      C1846   1.409       .  A
C1846      C1847   1.503       .  S
C1847      H1851   1.111       .  S
C1847      H1852   1.108       .  S
C1847      H1853   1.109       .  S
C1850      H1854   1.110       .  S
C1850      H1855   1.110       .  S
C1850      H1856   1.111       .  S
C1857      H1864   1.083       .  S
C1857      C1858   1.407       .  A
C1857      C1862   1.405       .  A
C1858      C1859   1.423       .  A
C1859      C1866   1.501       .  S
C1859      C1860   1.403       .  A
C1860      H1865   1.085       .  S
C1860      C1861   1.396       .  A
C1861      C1862   1.412       .  A
C1862      C1863   1.507       .  S
C1863      H1867   1.111       .  S
C1863      H1868   1.110       .  S
C1863      H1869   1.110       .  S
C1866      H1870   1.092       .  S
C1866      H1871   1.111       .  S
C1866      H1872   1.111       .  S
C1873      H1880   1.075       .  S
C1873      C1874   1.421       .  A
C1873      C1878   1.401       .  A
C1874      C1875   1.428       .  A
C1875      C1882   1.507       .  S
C1875      C1876   1.406       .  A
C1876      H1881   1.085       .  S
C1876      C1877   1.397       .  A
C1877      C1878   1.402       .  A
C1878      C1879   1.509       .  S
C1879      H1883   1.111       .  S
C1879      H1884   1.110       .  S
C1879      H1885   1.110       .  S
C1882      H1886   1.102       .  S
C1882      H1887   1.108       .  S
C1882      H1888   1.111       .  S
C1889      H1896   1.084       .  S
C1889      C1890   1.404       .  A
C1889      C1894   1.410       .  A
C1890      C1891   1.422       .  A
C1891      C1898   1.507       .  S
C1891      C1892   1.399       .  A
C1892      H1897   1.085       .  S
C1892      C1893   1.395       .  A
C1893      C1894   1.412       .  A
C1894      C1895   1.505       .  S
C1895      H1899   1.111       .  S
C1895      H1900   1.111       .  S
C1895      H1901   1.110       .  S
C1898      H1902   1.110       .  S
C1898      H1903   1.107       .  S
C1898      H1904   1.111       .  S
C1905      H1912   1.084       .  S
C1905      C1906   1.406       .  A
C1905      C1910   1.396       .  A
C1906      C1907   1.408       .  A
C1907      C1914   1.504       .  S
C1907      C1908   1.408       .  A
C1908      H1913   1.084       .  S
C1908      C1909   1.407       .  A
C1909      C1910   1.409       .  A
C1910      C1911   1.509       .  S
C1911      H1915   1.111       .  S
C1911      H1916   1.109       .  S
C1911      H1917   1.110       .  S
C1914      H1918   1.110       .  S
C1914      H1919   1.109       .  S
C1914      H1920   1.111       .  S
C1921      H1928   1.079       .  S
C1921      C1922   1.410       .  A
C1921      C1926   1.405       .  A
C1922      C1923   1.436       .  A
C1923      C1930   1.519       .  S
C1923      C1924   1.398       .  A
C1924      H1929   1.086       .  S
C1924      C1925   1.391       .  A
C1925      C1926   1.408       .  A
C1926      C1927   1.507       .  S
C1927      H1931   1.111       .  S
C1927      H1932   1.110       .  S
C1927      H1933   1.110       .  S
C1930      H1934   1.105       .  S
C1930      H1935   1.106       .  S
C1930      H1936   1.111       .  S
C1937      H1944   1.084       .  S
C1937      C1938   1.406       .  A
C1937      C1942   1.409       .  A
C1938      C1939   1.415       .  A
C1939      C1946   1.506       .  S
C1939      C1940   1.400       .  A
C1940      H1945   1.083       .  S
C1940      C1941   1.406       .  A
C1941      C1942   1.421       .  A
C1942      C1943   1.507       .  S
C1943      H1947   1.111       .  S
C1943      H1948   1.110       .  S
C1943      H1949   1.110       .  S
C1946      H1950   1.107       .  S
C1946      H1951   1.103       .  S
C1946      H1952   1.111       .  S
C1953      H1960   1.080       .  S
C1953      C1954   1.414       .  A
C1953      C1958   1.408       .  A
C1954      C1955   1.434       .  A
C1955      C1962   1.516       .  S
C1955      C1956   1.402       .  A
C1956      H1961   1.086       .  S
C1956      C1957   1.392       .  A
C1957      C1958   1.407       .  A
C1958      C1959   1.507       .  S
C1959      H1963   1.111       .  S
C1959      H1964   1.110       .  S
C1959      H1965   1.110       .  S
C1962      H1966   1.106       .  S
C1962      H1967   1.105       .  S
C1962      H1968   1.111       .  S
C1969      H1976   1.085       .  S
C1969      C1970   1.395       .  A
C1969      C1974   1.405       .  A
C1970      C1971   1.409       .  A
C1971      C1978   1.508       .  S
C1971      C1972   1.403       .  A
C1972      H1977   1.083       .  S
C1972      C1973   1.409       .  A
C1973      C1974   1.428       .  A
C1974      C1975   1.502       .  S
C1975      H1979   1.111       .  S
C1975      H1980   1.090       .  S
C1975      H1981   1.110       .  S
C1978      H1982   1.111       .  S
C1978      H1983   1.109       .  S
C1978      H1984   1.111       .  S
C1985      H1992   1.084       .  S
C1985      C1986   1.403       .  A
C1985      C1990   1.411       .  A
C1986      C1987   1.424       .  A
C1987      C1994   1.512       .  S
C1987      C1988   1.400       .  A
C1988      H1993   1.085       .  S
C1988      C1989   1.396       .  A
C1989      C1990   1.415       .  A
C1990      C1991   1.506       .  S
C1991      H1995   1.111       .  S
C1991      H1996   1.110       .  S
C1991      H1997   1.110       .  S
C1994      H1998   1.106       .  S
C1994      H1999   1.108       .  S
C1994      H2000   1.111       .  S
C2001      H2008   1.084       .  S
C2001      C2002   1.402       .  A
C2001      C2006   1.407       .  A
C2002      C2003   1.417       .  A
C2003      C2010   1.503       .  S
C2003      C2004   1.410       .  A
C2004      H2009   1.084       .  S
C2004      C2005   1.401       .  A
C2005      C2006   1.414       .  A
C2006      C2007   1.507       .  S
C2007      H2011   1.110       .  S
C2007      H2012   1.109       .  S
C2007      H2013   1.111       .  S
C2010      H2014   1.109       .  S
C2010      H2015   1.110       .  S
C2010      H2016   1.111       .  S
C2017      H2024   1.084       .  S
C2017      C2018   1.406       .  A
C2017      C2022   1.401       .  A
C2018      C2019   1.420       .  A
C2019      C2026   1.505       .  S
C2019      C2020   1.410       .  A
C2020      H2025   1.084       .  S
C2020      C2021   1.401       .  A
C2021      C2022   1.413       .  A
C2022      C2023   1.509       .  S
C2023      H2027   1.111       .  S
C2023      H2028   1.110       .  S
C2023      H2029   1.110       .  S
C2026      H2030   1.105       .  S
C2026      H2031   1.104       .  S
C2026      H2032   1.110       .  S
C2033      H2040   1.084       .  S
C2033      C2034   1.403       .  A
C2033      C2038   1.414       .  A
C2034      C2035   1.420       .  A
C2035      C2042   1.511       .  S
C2035      C2036   1.400       .  A
C2036      H2041   1.085       .  S
C2036      C2037   1.404       .  A
C2037      C2038   1.420       .  A
C2038      C2039   1.506       .  S
C2039      H2043   1.111       .  S
C2039      H2044   1.110       .  S
C2039      H2045   1.109   1_556  S
C2042      H2046   1.111       .  S
C2042      H2047   1.106       .  S
C2042      H2048   1.111   1_556  S
C2049      H2056   1.083       .  S
C2049      C2050   1.402       .  A
C2049      C2054   1.410       .  A
C2050      C2051   1.415   1_554  A
C2051      C2058   1.509       .  S
C2051      C2052   1.403       .  A
C2052      H2057   1.084       .  S
C2052      C2053   1.404   1_556  A
C2053      C2054   1.417       .  A
C2054      C2055   1.500       .  S
C2055      H2059   1.110       .  S
C2055      H2060   1.110       .  S
C2055      H2061   1.105       .  S
C2058      H2062   1.111       .  S
C2058      H2063   1.109       .  S
C2058      H2064   1.111       .  S
C2065      H2072   1.080       .  S
C2065      C2066   1.413       .  A
C2065      C2070   1.407       .  A
C2066      C2067   1.422       .  A
C2067      C2074   1.509       .  S
C2067      C2068   1.405       .  A
C2068      H2073   1.085       .  S
C2068      C2069   1.404       .  A
C2069      C2070   1.416       .  A
C2070      C2071   1.509       .  S
C2071      H2075   1.111       .  S
C2071      H2076   1.111       .  S
C2071      H2077   1.109       .  S
C2074      H2078   1.107       .  S
C2074      H2079   1.110       .  S
C2074      H2080   1.111       .  S
C2081      H2088   1.084       .  S
C2081      C2082   1.401       .  A
C2081      C2086   1.410       .  A
C2082      C2083   1.409       .  A
C2083      C2090   1.506       .  S
C2083      C2084   1.406       .  A
C2084      H2089   1.081       .  S
C2084      C2085   1.409       .  A
C2085      C2086   1.423       .  A
C2086      C2087   1.508       .  S
C2087      H2091   1.111       .  S
C2087      H2092   1.108       .  S
C2087      H2093   1.109       .  S
C2090      H2094   1.110       .  S
C2090      H2095   1.111       .  S
C2090      H2096   1.111       .  S
C2097      H2104   1.084       .  S
C2097      C2098   1.410   1_565  A
C2097      C2102   1.407       .  A
C2098      C2099   1.419       .  A
C2099      C2106   1.508       .  S
C2099      C2100   1.407       .  A
C2100      H2105   1.083       .  S
C2100      C2101   1.402       .  A
C2101      C2102   1.410   1_545  A
C2102      C2103   1.507       .  S
C2103      H2107   1.111       .  S
C2103      H2108   1.110       .  S
C2103      H2109   1.110       .  S
C2106      H2110   1.109       .  S
C2106      H2111   1.111       .  S
C2106      H2112   1.111       .  S
C2113      H2120   1.085       .  S
C2113      C2114   1.405   1_565  A
C2113      C2118   1.402       .  A
C2114      C2115   1.418       .  A
C2115      C2122   1.503       .  S
C2115      C2116   1.411       .  A
C2116      H2121   1.084       .  S
C2116      C2117   1.403       .  A
C2117      C2118   1.414   1_545  A
C2118      C2119   1.508       .  S
C2119      H2123   1.111       .  S
C2119      H2124   1.110       .  S
C2119      H2125   1.109       .  S
C2122      H2126   1.109       .  S
C2122      H2127   1.104       .  S
C2122      H2128   1.111       .  S
C2129      H2136   1.083       .  S
C2129      C2130   1.402       .  A
C2129      C2134   1.409       .  A
C2130      C2131   1.417       .  A
C2131      C2138   1.508       .  S
C2131      C2132   1.411       .  A
C2132      H2137   1.084       .  S
C2132      C2133   1.410       .  A
C2133      C2134   1.426       .  A
C2134      C2135   1.510       .  S
C2135      H2139   1.111       .  S
C2135      H2140   1.109       .  S
C2135      H2141   1.111       .  S
C2138      H2142   1.107       .  S
C2138      H2143   1.111       .  S
C2138      H2144   1.110       .  S
C2145      H2152   1.083       .  S
C2145      C2146   1.404       .  A
C2145      C2150   1.411       .  A
C2146      C2147   1.415       .  A
C2147      C2154   1.506       .  S
C2147      C2148   1.400       .  A
C2148      H2153   1.085       .  S
C2148      C2149   1.400       .  A
C2149      C2150   1.413       .  A
C2150      C2151   1.505       .  S
C2151      H2155   1.111       .  S
C2151      H2156   1.110       .  S
C2151      H2157   1.110       .  S
C2154      H2158   1.106       .  S
C2154      H2159   1.110       .  S
C2154      H2160   1.110       .  S
C2161      H2168   1.083       .  S
C2161      C2162   1.402       .  A
C2161      C2166   1.407       .  A
C2162      C2163   1.414       .  A
C2163      C2170   1.507       .  S
C2163      C2164   1.401       .  A
C2164      H2169   1.084       .  S
C2164      C2165   1.408       .  A
C2165      C2166   1.425       .  A
C2166      C2167   1.509       .  S
C2167      H2171   1.111       .  S
C2167      H2172   1.110       .  S
C2167      H2173   1.111       .  S
C2170      H2174   1.104       .  S
C2170      H2175   1.110       .  S
C2170      H2176   1.110       .  S
C2177      H2184   1.084       .  S
C2177      C2178   1.397       .  A
C2177      C2182   1.397       .  A
C2178      C2179   1.414       .  A
C2179      C2186   1.509       .  S
C2179      C2180   1.404       .  A
C2180      H2185   1.071       .  S
C2180      C2181   1.410       .  A
C2181      C2182   1.431       .  A
C2182      C2183   1.515       .  S
C2183      H2187   1.111       .  S
C2183      H2188   1.111   1_556  S
C2183      H2189   1.100       .  S
C2186      H2190   1.111       .  S
C2186      H2191   1.109       .  S
C2186      H2192   1.111       .  S
C2193      H2200   1.083       .  S
C2193      C2194   1.407   1_554  A
C2193      C2198   1.404       .  A
C2194      C2195   1.414       .  A
C2195      C2202   1.509       .  S
C2195      C2196   1.402       .  A
C2196      H2201   1.085       .  S
C2196      C2197   1.403   1_556  A
C2197      C2198   1.409       .  A
C2198      C2199   1.506       .  S
C2199      H2203   1.111       .  S
C2199      H2204   1.109       .  S
C2199      H2205   1.111       .  S
C2202      H2206   1.110       .  S
C2202      H2207   1.111       .  S
C2202      H2208   1.107       .  S
C2209      H2216   1.084       .  S
C2209      C2210   1.402       .  A
C2209      C2214   1.408       .  A
C2210      C2211   1.417       .  A
C2211      C2218   1.508       .  S
C2211      C2212   1.396       .  A
C2212      H2217   1.085       .  S
C2212      C2213   1.400       .  A
C2213      C2214   1.416       .  A
C2214      C2215   1.506       .  S
C2215      H2219   1.111       .  S
C2215      H2220   1.110       .  S
C2215      H2221   1.110       .  S
C2218      H2222   1.110       .  S
C2218      H2223   1.102       .  S
C2218      H2224   1.111       .  S
C2225      H2232   1.084       .  S
C2225      C2226   1.408       .  A
C2225      C2230   1.403       .  A
C2226      C2227   1.426       .  A
C2227      C2234   1.509       .  S
C2227      C2228   1.405       .  A
C2228      H2233   1.083       .  S
C2228      C2229   1.398       .  A
C2229      C2230   1.412       .  A
C2230      C2231   1.509       .  S
C2231      H2235   1.111       .  S
C2231      H2236   1.110       .  S
C2231      H2237   1.108       .  S
C2234      H2238   1.110       .  S
C2234      H2239   1.110       .  S
C2234      H2240   1.111       .  S
C2241      H2248   1.085       .  S
C2241      C2242   1.392       .  A
C2241      C2246   1.405       .  A
C2242      C2243   1.408       .  A
C2243      C2250   1.507       .  S
C2243      C2244   1.410       .  A
C2244      H2249   1.077       .  S
C2244      C2245   1.414       .  A
C2245      C2246   1.437       .  A
C2246      C2247   1.514       .  S
C2247      H2251   1.111       .  S
C2247      H2252   1.104       .  S
C2247      H2253   1.105       .  S
C2250      H2254   1.109       .  S
C2250      H2255   1.111       .  S
C2250      H2256   1.111       .  S
C2257      H2264   1.084       .  S
C2257      C2258   1.402       .  A
C2257      C2262   1.407       .  A
C2258      C2259   1.414       .  A
C2259      C2266   1.508       .  S
C2259      C2260   1.403       .  A
C2260      H2265   1.085       .  S
C2260      C2261   1.404       .  A
C2261      C2262   1.414       .  A
C2262      C2263   1.500       .  S
C2263      H2267   1.110       .  S
C2263      H2268   1.107       .  S
C2263      H2269   1.109       .  S
C2266      H2270   1.109       .  S
C2266      H2271   1.111       .  S
C2266      H2272   1.111       .  S
C2273      H2280   1.084       .  S
C2273      C2274   1.405       .  A
C2273      C2278   1.400       .  A
C2274      C2275   1.419       .  A
C2275      C2282   1.501       .  S
C2275      C2276   1.414       .  A
C2276      H2281   1.083       .  S
C2276      C2277   1.405       .  A
C2277      C2278   1.415       .  A
C2278      C2279   1.510       .  S
C2279      H2283   1.111       .  S
C2279      H2284   1.109       .  S
C2279      H2285   1.110       .  S
C2282      H2286   1.101       .  S
C2282      H2287   1.109       .  S
C2282      H2288   1.111       .  S
C2289      H2296   1.083       .  S
C2289      C2290   1.404       .  A
C2289      C2294   1.410       .  A
C2290      C2291   1.411       .  A
C2291      C2298   1.505       .  S
C2291      C2292   1.409       .  A
C2292      H2297   1.084       .  S
C2292      C2293   1.408       .  A
C2293      C2294   1.421       .  A
C2294      C2295   1.508       .  S
C2295      H2299   1.111       .  S
C2295      H2300   1.111       .  S
C2295      H2301   1.109       .  S
C2298      H2302   1.109       .  S
C2298      H2303   1.108       .  S
C2298      H2304   1.110       .  S
C2305      H2312   1.081       .  S
C2305      C2306   1.406       .  A
C2305      C2310   1.403       .  A
C2306      C2307   1.410       .  A
C2307      C2314   1.504       .  S
C2307      C2308   1.412       .  A
C2308      H2313   1.084       .  S
C2308      C2309   1.408       .  A
C2309      C2310   1.410       .  A
C2310      C2311   1.507       .  S
C2311      H2315   1.111       .  S
C2311      H2316   1.109       .  S
C2311      H2317   1.111       .  S
C2314      H2318   1.110       .  S
C2314      H2319   1.111       .  S
C2314      H2320   1.111       .  S
C2321      H2328   1.079       .  S
C2321      C2322   1.413       .  A
C2321      C2326   1.411       .  A
C2322      C2323   1.435       .  A
C2323      C2330   1.515       .  S
C2323      C2324   1.403       .  A
C2324      H2329   1.085       .  S
C2324      C2325   1.393       .  A
C2325      C2326   1.412       .  A
C2326      C2327   1.508       .  S
C2327      H2331   1.111       .  S
C2327      H2332   1.110       .  S
C2327      H2333   1.110       .  S
C2330      H2334   1.104       .  S
C2330      H2335   1.106       .  S
C2330      H2336   1.111       .  S
C2337      H2344   1.083       .  S
C2337      C2338   1.413       .  A
C2337      C2342   1.410       .  A
C2338      C2339   1.432       .  A
C2339      C2346   1.503       .  S
C2339      C2340   1.406       .  A
C2340      H2345   1.085       .  S
C2340      C2341   1.394       .  A
C2341      C2342   1.411       .  A
C2342      C2343   1.506       .  S
C2343      H2347   1.111       .  S
C2343      H2348   1.110       .  S
C2343      H2349   1.110       .  S
C2346      H2350   1.091       .  S
C2346      H2351   1.110       .  S
C2346      H2352   1.111       .  S
C2353      H2360   1.077       .  S
C2353      C2354   1.413       .  A
C2353      C2358   1.412       .  A
C2354      C2355   1.434       .  A
C2355      C2362   1.517       .  S
C2355      C2356   1.406       .  A
C2356      H2361   1.085       .  S
C2356      C2357   1.399       .  A
C2357      C2358   1.415       .  A
C2358      C2359   1.507       .  S
C2359      H2363   1.110       .  S
C2359      H2364   1.111       .  S
C2359      H2365   1.110       .  S
C2362      H2366   1.107       .  S
C2362      H2367   1.105       .  S
C2362      H2368   1.111       .  S
C2369      H2376   1.084       .  S
C2369      C2370   1.399       .  A
C2369      C2374   1.408       .  A
C2370      C2371   1.413       .  A
C2371      C2378   1.507       .  S
C2371      C2372   1.404       .  A
C2372      H2377   1.085       .  S
C2372      C2373   1.403       .  A
C2373      C2374   1.418       .  A
C2374      C2375   1.503       .  S
C2375      H2379   1.110       .  S
C2375      H2380   1.109       .  S
C2375      H2381   1.108       .  S
C2378      H2382   1.109       .  S
C2378      H2383   1.111       .  S
C2378      H2384   1.111       .  S
C2385      H2392   1.084       .  S
C2385      C2386   1.393       .  A
C2385      C2390   1.407       .  A
C2386      C2387   1.410       .  A
C2387      C2394   1.507       .  S
C2387      C2388   1.407       .  A
C2388      H2393   1.083       .  S
C2388      C2389   1.411       .  A
C2389      C2390   1.431       .  A
C2390      C2391   1.504       .  S
C2391      H2395   1.111       .  S
C2391      H2396   1.108       .  S
C2391      H2397   1.099       .  S
C2394      H2398   1.111       .  S
C2394      H2399   1.110       .  S
C2394      H2400   1.111       .  S
C2401      H2408   1.083       .  S
C2401      C2402   1.407       .  A
C2401      C2406   1.401       .  A
C2402      C2403   1.424       .  A
C2403      C2410   1.509       .  S
C2403      C2404   1.405       .  A
C2404      H2409   1.085       .  S
C2404      C2405   1.402       .  A
C2405      C2406   1.409       .  A
C2406      C2407   1.500       .  S
C2407      H2411   1.110       .  S
C2407      H2412   1.105       .  S
C2407      H2413   1.109       .  S
C2410      H2414   1.110       .  S
C2410      H2415   1.111       .  S
C2410      H2416   1.111       .  S
C2417      H2424   1.085       .  S
C2417      C2418   1.396       .  A
C2417      C2422   1.401       .  A
C2418      C2419   1.410       .  A
C2419      C2426   1.508       .  S
C2419      C2420   1.407       .  A
C2420      H2425   1.076       .  S
C2420      C2421   1.412       .  A
C2421      C2422   1.434       .  A
C2422      C2423   1.518       .  S
C2423      H2427   1.111       .  S
C2423      H2428   1.106       .  S
C2423      H2429   1.105       .  S
C2426      H2430   1.109       .  S
C2426      H2431   1.111       .  S
C2426      H2432   1.111       .  S
C2433      H2440   1.084       .  S
C2433      C2434   1.404       .  A
C2433      C2438   1.410       .  A
C2434      C2435   1.410       .  A
C2435      C2442   1.510       .  S
C2435      C2436   1.398       .  A
C2436      H2441   1.084       .  S
C2436      C2437   1.416       .  A
C2437      C2438   1.427       .  A
C2438      C2439   1.502       .  S
C2439      H2443   1.111       .  S
C2439      H2444   1.110       .  S
C2439      H2445   1.108       .  S
C2442      H2446   1.111       .  S
C2442      H2447   1.109       .  S
C2442      H2448   1.111       .  S
C2449      H2456   1.084       .  S
C2449      C2450   1.405       .  A
C2449      C2454   1.397       .  A
C2450      C2451   1.411       .  A
C2451      C2458   1.506       .  S
C2451      C2452   1.408       .  A
C2452      H2457   1.084       .  S
C2452      C2453   1.409       .  A
C2453      C2454   1.415       .  A
C2454      C2455   1.510       .  S
C2455      H2459   1.111       .  S
C2455      H2460   1.110       .  S
C2455      H2461   1.109   1_565  S
C2458      H2462   1.108       .  S
C2458      H2463   1.110   1_565  S
C2458      H2464   1.111       .  S
C2465      H2472   1.084       .  S
C2465      C2466   1.408   1_545  A
C2465      C2470   1.402       .  A
C2466      C2467   1.428       .  A
C2467      C2474   1.510       .  S
C2467      C2468   1.404       .  A
C2468      H2473   1.083       .  S
C2468      C2469   1.396       .  A
C2469      C2470   1.412   1_565  A
C2470      C2471   1.507       .  S
C2471      H2475   1.111       .  S
C2471      H2476   1.110       .  S
C2471      H2477   1.109       .  S
C2474      H2478   1.110       .  S
C2474      H2479   1.110       .  S
C2474      H2480   1.111       .  S
C2481      H2488   1.085       .  S
C2481      C2482   1.397       .  A
C2481      C2486   1.400       .  A
C2482      C2483   1.414       .  A
C2483      C2490   1.507       .  S
C2483      C2484   1.410       .  A
C2484      H2489   1.077       .  S
C2484      C2485   1.412       .  A
C2485      C2486   1.433       .  A
C2486      C2487   1.517       .  S
C2487      H2491   1.111       .  S
C2487      H2492   1.105       .  S
C2487      H2493   1.105       .  S
C2490      H2494   1.110       .  S
C2490      H2495   1.110       .  S
C2490      H2496   1.111       .  S
C2497      H2504   1.085       .  S
C2497      C2498   1.399       .  A
C2497      C2502   1.402       .  A
C2498      C2499   1.414       .  A
C2499      C2506   1.505       .  S
C2499      C2500   1.411       .  A
C2500      H2505   1.084       .  S
C2500      C2501   1.403       .  A
C2501      C2502   1.420       .  A
C2502      C2503   1.511       .  S
C2503      H2507   1.111       .  S
C2503      H2508   1.108       .  S
C2503      H2509   1.108       .  S
C2506      H2510   1.110       .  S
C2506      H2511   1.110       .  S
C2506      H2512   1.111       .  S
C2513      H2520   1.081       .  S
C2513      C2514   1.409       .  A
C2513      C2518   1.403       .  A
C2514      C2515   1.421       .  A
C2515      C2522   1.506       .  S
C2515      C2516   1.412       .  A
C2516      H2521   1.085       .  S
C2516      C2517   1.403       .  A
C2517      C2518   1.407       .  A
C2518      C2519   1.507       .  S
C2519      H2523   1.111       .  S
C2519      H2524   1.110       .  S
C2519      H2525   1.110       .  S
C2522      H2526   1.107       .  S
C2522      H2527   1.105       .  S
C2522      H2528   1.111       .  S
C2529      H2536   1.084       .  S
C2529      C2530   1.408       .  A
C2529      C2534   1.409       .  A
C2530      C2531   1.424       .  A
C2531      C2538   1.511       .  S
C2531      C2532   1.399       .  A
C2532      H2537   1.083       .  S
C2532      C2533   1.399       .  A
C2533      C2534   1.417       .  A
C2534      C2535   1.509       .  S
C2535      H2539   1.111       .  S
C2535      H2540   1.108       .  S
C2535      H2541   1.107       .  S
C2538      H2542   1.110       .  S
C2538      H2543   1.110       .  S
C2538      H2544   1.111       .  S
C2545      H2552   1.083       .  S
C2545      C2546   1.407       .  A
C2545      C2550   1.399       .  A
C2546      C2547   1.423       .  A
C2547      C2554   1.506       .  S
C2547      C2548   1.416       .  A
C2548      H2553   1.084       .  S
C2548      C2549   1.405       .  A
C2549      C2550   1.410       .  A
C2550      C2551   1.501       .  S
C2551      H2555   1.111       .  S
C2551      H2556   1.105       .  S
C2551      H2557   1.109       .  S
C2554      H2558   1.110       .  S
C2554      H2559   1.110       .  S
C2554      H2560   1.111       .  S
C2561      H2568   1.093       .  S
C2561      C2562   1.402       .  A
C2561      C2566   1.398       .  A
C2562      C2563   1.412       .  A
C2563      C2570   1.505       .  S
C2563      C2564   1.410       .  A
C2564      H2569   1.092       .  S
C2564      C2565   1.406       .  A
C2565      C2566   1.412       .  A
C2566      C2567   1.507       .  S
C2567      H2571   1.110       .  S
C2567      H2572   1.110       .  S
C2567      H2573   1.108       .  S
C2570      H2574   1.109       .  S
C2570      H2575   1.109       .  S
C2570      H2576   1.111       .  S
C2577      H2584   1.085       .  S
C2577      C2578   1.396       .  A
C2577      C2582   1.394       .  A
C2578      C2579   1.417       .  A
C2579      C2586   1.506       .  S
C2579      C2580   1.410       .  A
C2580      H2585   1.084       .  S
C2580      C2581   1.402       .  A
C2581      C2582   1.419       .  A
C2582      C2583   1.507       .  S
C2583      H2587   1.111       .  S
C2583      H2588   1.105       .  S
C2583      H2589   1.110       .  S
C2586      H2590   1.110       .  S
C2586      H2591   1.111       .  S
C2586      H2592   1.111       .  S
