geometry optimzed in LAMMPS
_audit_creation_date              2020-11-30 
_audit_creation_method            'lammps2cif' 
_symmetry_space_group_name_H-M    'P1' 
_symmetry_Int_Tables_number       1 
_symmetry_cell_setting            triclinic 
loop_ 
_symmetry_equiv_pos_as_xyz 
  x,y,z 
_cell_length_a                    33.17039907 
_cell_length_b                    32.94194412733904 
_cell_length_c                    32.78709224409419 
_cell_angle_alpha                 91.02425290765441 
_cell_angle_beta                  89.79143240949541 
_cell_angle_gamma                 89.4549338703089 
loop_ 
_atom_site_label 
_atom_site_type_symbol 
_atom_site_fract_x 
_atom_site_fract_y 
_atom_site_fract_z 
_atom_site_charge 
O1          O  0.71999952  0.75907958  0.82854272    -0.86700
C2          C  0.73784978  0.65926131  0.75550617     0.89300
Mg3        Mg  0.68359135  0.80897190  0.80889257     1.58100
O4          O  0.82059048  0.72433252  0.76185030    -0.86400
O5          O  0.78210613  0.74648918  0.84772661    -0.73800
C6          C  0.74457651  0.84722496  0.62082661     0.94400
O7          O  0.65992826  0.71877767  0.76391044    -0.73600
O8          O  0.71574804  0.85307008  0.64577760    -0.81100
Mg9        Mg  0.69407091  0.70041909  0.82200652     1.58000
C10         C  0.88291063  0.75458469  0.65687828     0.94300
O11         O  0.72323095  0.67810983  0.88229554    -0.79300
H12         H  0.86261066  0.75351718  0.79435933    -0.04700
C13         C  0.74868033  0.73703360  0.66262448     0.89200
O14         O  0.74130434  0.84270689  0.78987128    -0.73800
O15         O  0.74463588  0.68163387  0.78536561    -0.86600
O16         O  0.87459528  0.72491427  0.67980714    -0.79400
C17         C  0.84764976  0.61844132  0.75209054     0.94400
C18         C  0.75424310  0.65687427  0.89118044     0.94300
Mg19       Mg  0.80497113  0.80342118  0.68931521     1.58000
O20         O  0.77499816  0.82502761  0.62925160    -0.79300
O21         O  0.84033980  0.78561951  0.74698842    -0.73600
O22         O  0.82585619  0.62820908  0.78288615    -0.79400
O23         O  0.63908750  0.71966047  0.85832271    -0.81100
O24         O  0.67738452  0.87715140  0.72998328    -0.79500
C25         C  0.84217545  0.75407402  0.76875720     0.88700
O26         O  0.75547572  0.82243629  0.72718574    -0.86600
O27         O  0.77827290  0.74498095  0.68412311    -0.86700
O28         O  0.71640101  0.75816826  0.66469041    -0.73800
Mg29       Mg  0.80243037  0.68849720  0.81258229     1.58000
O30         O  0.85321310  0.64221807  0.72262811    -0.81100
H31         H  0.74790083  0.79295339  0.87086483    -0.04900
O32         O  0.67916223  0.78060279  0.75032244    -0.86400
H33         H  0.63785175  0.75143823  0.71687366    -0.04700
H34         H  0.78826409  0.86409642  0.75689584    -0.04900
C35         C  0.65795185  0.75071927  0.74273669     0.88700
C36         C  0.74951002  0.76708840  0.85013538     0.89300
C37         C  0.76265358  0.84406317  0.75755348     0.89300
H38         H  0.74998912  0.71092551  0.64219245    -0.04800
O39         O  0.75887391  0.66072894  0.72303891    -0.73900
Mg40       Mg  0.69768212  0.81658289  0.70002431     1.58000
H41         H  0.71280500  0.63854632  0.75670810    -0.04900
C42         C  0.61439214  0.74852330  0.85183353     0.94300
O43         O  0.64745529  0.86384615  0.78908201    -0.81100
C44         C  0.65548587  0.88782897  0.76027098     0.94400
O45         O  0.78393717  0.65227118  0.86697212    -0.81100
Mg46       Mg  0.81553040  0.69557742  0.70327889     1.58200
O47         O  0.62368436  0.77924682  0.83064620    -0.79400
O48         O  0.85827139  0.78357043  0.65105527    -0.81100
C49         C  0.63270282  0.00318990  0.75015425    -0.00800
O50         O  0.75875196  0.18188600  0.77246979    -0.86700
C51         C  0.65542684  0.24845002  0.75945228     0.89300
Mg52       Mg  0.80631975  0.20169588  0.81122969     1.58100
O53         O  0.72050841  0.24987257  0.67550239    -0.86400
O54         O  0.74785204  0.16510564  0.70840703    -0.73800
C55         C  0.83169665  0.39421048  0.76426104     0.94400
O56         O  0.71298355  0.23850006  0.83918878    -0.73600
O57         O  0.83545473  0.36864963  0.79245602    -0.81100
Mg58       Mg  0.70011685  0.18225683  0.79914426     1.58000
C59         C  0.74727934  0.35534188  0.61697992     0.94300
O60         O  0.68457497  0.12295223  0.76498417    -0.79300
H61         H  0.75248477  0.22101174  0.63182560    -0.04700
C62         C  0.72498760  0.34487970  0.75468650     0.89200
O63         O  0.83945591  0.22738177  0.75550724    -0.73800
O64         O  0.67973225  0.22076479  0.75093273    -0.86600
O65         O  0.71815981  0.33163488  0.62487575    -0.79400
C66         C  0.61480371  0.25286694  0.64949973     0.94400
C67         C  0.66320473  0.11416668  0.73404182     0.94300
Mg68       Mg  0.79466006  0.32629385  0.69690855     1.58000
O69         O  0.81300990  0.38617205  0.73112217    -0.79300
O70         O  0.78109717  0.26906437  0.65793788    -0.73600
O71         O  0.62663266  0.22262363  0.67009564    -0.79400
O72         O  0.72065574  0.14341653  0.85127318    -0.81100
O73         O  0.86663893  0.28566345  0.82882633    -0.79500
C74         C  0.75101684  0.24568539  0.65398006     0.88700
O75         O  0.81441641  0.28830273  0.74576766    -0.86600
O76         O  0.73539566  0.32711244  0.72266856    -0.86700
O77         O  0.74470934  0.34136761  0.78770681    -0.73800
Mg78       Mg  0.68817303  0.19653561  0.69083771     1.58000
O79         O  0.63670009  0.28375742  0.64414133    -0.81100
H80         H  0.79540807  0.14418546  0.74100676    -0.04900
O81         O  0.77361180  0.25706173  0.82122135    -0.86400
H82         H  0.74273864  0.28535472  0.86607119    -0.04700
H83         H  0.85923942  0.26501270  0.71148143    -0.04900
C84         C  0.74353076  0.26114161  0.84337701     0.88700
C85         C  0.76833546  0.16272158  0.74102915     0.89300
C86         C  0.83870222  0.26082981  0.73670706     0.89300
H87         H  0.69762004  0.36297651  0.75489642    -0.04800
O88         O  0.65448409  0.28141665  0.73970740    -0.73900
Mg89       Mg  0.80466758  0.31095360  0.80644564     1.58000
H90         H  0.63488599  0.24480954  0.78477345    -0.04900
C91         C  0.74921692  0.14905834  0.87634682     0.94300
O92         O  0.85852286  0.22230855  0.84997313    -0.81100
C93         C  0.87939850  0.25425473  0.84721994     0.94400
O94         O  0.65569076  0.13944784  0.70630064    -0.81100
Mg95       Mg  0.68839418  0.30561146  0.68338918     1.58200
O96         O  0.77841290  0.17279614  0.86899296    -0.79400
O97         O  0.77443634  0.36373854  0.64304084    -0.81100
C98         C  0.87414746  0.50370794  0.75084058    -0.00800
C99         C  0.74970728  0.87691320  0.50694018    -0.00800
O100        O  0.77968511  0.75652216  0.18354096    -0.86700
C101        C  0.76480627  0.65771157  0.25518347     0.89300
Mg102      Mg  0.81472259  0.80732380  0.20294800     1.58100
O103        O  0.68025443  0.72209875  0.24923258    -0.86400
O104        O  0.71820020  0.74250255  0.16387896    -0.73800
C105        C  0.75426288  0.84678670  0.39246410     0.94400
O106        O  0.84232958  0.71808038  0.24653332    -0.73600
O107        O  0.78298935  0.85247923  0.36766162    -0.81100
Mg108      Mg  0.80792979  0.69842755  0.18867536     1.58000
C109        C  0.61569215  0.75375976  0.35337079     0.94300
O110        O  0.77884764  0.67489808  0.12856561    -0.79300
H111        H  0.63791240  0.75068114  0.21691053    -0.04700
C112        C  0.75180209  0.73660197  0.34805568     0.89200
O113        O  0.75660458  0.84101555  0.22366239    -0.73800
O114        O  0.75783138  0.67953862  0.22563090    -0.86600
O115        O  0.62513275  0.72382079  0.33000052    -0.79400
C116        C  0.65442424  0.61661995  0.25651846     0.94400
C117        C  0.74864067  0.65296380  0.11933060     0.94300
Mg118      Mg  0.69394694  0.80248012  0.32319605     1.58000
O119        O  0.72395400  0.82483471  0.38351762    -0.79300
O120        O  0.65929115  0.78373193  0.26493673    -0.73600
O121        O  0.67731495  0.62535942  0.22671225    -0.79400
O122        O  0.86197902  0.71831676  0.15132921    -0.81100
O123        O  0.82421315  0.87627347  0.28411514    -0.79500
C124        C  0.65816888  0.75173298  0.24265725     0.88700
O125        O  0.74357650  0.82164440  0.28599632    -0.86600
O126        O  0.72159568  0.74411928  0.32733569    -0.86700
O127        O  0.78357936  0.75785713  0.34591582    -0.73800
Mg128      Mg  0.69969869  0.68515712  0.19827989     1.58000
O129        O  0.64827390  0.64090059  0.28638363    -0.81100
H130        H  0.75087743  0.78897663  0.14149267    -0.04900
O131        O  0.82133941  0.77994574  0.26104917    -0.86400
H132        H  0.86410777  0.75223919  0.29352522    -0.04700
H133        H  0.70969927  0.86296077  0.25769007    -0.04900
C134        C  0.84366228  0.75058886  0.26795490     0.88700
C135        C  0.75004734  0.76357997  0.16190229     0.89300
C136        C  0.73567155  0.84289940  0.25626351     0.89300
H137        H  0.75149352  0.71072839  0.36787926    -0.04800
O138        O  0.74304093  0.65929572  0.28725836    -0.73900
Mg139      Mg  0.80206003  0.81600688  0.31238471     1.58000
H140        H  0.79045952  0.63722837  0.25399058    -0.04900
C141        C  0.88507362  0.74857885  0.15651183     0.94300
O142        O  0.85003443  0.86211316  0.22257114    -0.81100
C143        C  0.84504038  0.88591162  0.25303594     0.94400
O144        O  0.71939879  0.64775275  0.14366122    -0.81100
Mg145      Mg  0.68524600  0.69429632  0.30712755     1.58200
O146        O  0.87497503  0.77919753  0.17871953    -0.79400
O147        O  0.63990670  0.78270618  0.36057532    -0.81100
C148        C  0.75068470  0.62446588  0.00431649    -0.00800
C149        C  0.50091386  0.75148258  0.37908712    -0.00800
C150        C  0.12880180  0.99849267  0.74014168    -0.00800
C151        C  0.74578021  0.11949937  0.99042645    -0.00800
C152        C  0.36970135  0.49144181  0.75696227    -0.00800
C153        C  0.75007933  0.37803476  0.50082062    -0.00800
C154        C  0.62641483  0.50273045  0.25125903    -0.00800
C155        C  0.24745671  0.62284677  0.50047961    -0.00800
C156        C  0.99917630  0.75310502  0.12783424    -0.00800
O157        O  0.29377972  0.79322651  0.30566954    -0.86700
C158        C  0.30792900  0.77635791  0.18367050     0.89300
Mg159      Mg  0.28830102  0.74354099  0.34653621     1.58100
O160        O  0.20986764  0.80569104  0.21343027    -0.86400
O161        O  0.25682327  0.84566388  0.28845956    -0.73800
C162        C  0.16113504  0.61336563  0.25722957     0.94400
O163        O  0.34109742  0.72158577  0.25738293    -0.73600
O164        O  0.19295998  0.61243408  0.27885405    -0.81100
Mg165      Mg  0.34329765  0.79094548  0.26244290     1.58000
C166        C  0.11040755  0.74829583  0.16497402     0.94300
O167        O  0.35352603  0.86041406  0.26481408    -0.79300
H168        H  0.17291178  0.84474340  0.24268667    -0.04700
C169        C  0.22692594  0.68459385  0.19251785     0.89200
O170        O  0.21937088  0.74731197  0.34517205    -0.73800
O171        O  0.30047261  0.79736163  0.21445772    -0.86600
O172        O  0.14241690  0.76554534  0.15279477    -0.79400
C173        C  0.24083955  0.84507680  0.11664745     0.94400
C174        C  0.34106008  0.89295191  0.24816404     0.94300
Mg175      Mg  0.15684224  0.71598270  0.24549977     1.58000
O176        O  0.14765134  0.64621924  0.24196323    -0.79300
O177        O  0.15926109  0.78558601  0.25113662    -0.73600
O178        O  0.25850574  0.85785626  0.14886435    -0.79400
O179        O  0.39015400  0.78125097  0.31208281    -0.81100
O180        O  0.24177246  0.64848090  0.35667360    -0.79500
C181        C  0.18027613  0.81339031  0.23543663     0.88700
O182        O  0.19948625  0.70948526  0.29338820    -0.86600
O183        O  0.20640704  0.71462693  0.20267659    -0.86700
O184        O  0.24446373  0.66269951  0.21860623    -0.73800
Mg185      Mg  0.25858604  0.84798260  0.21857504     1.58000
O186        O  0.21848492  0.81390547  0.11631540    -0.81100
H187        H  0.26883181  0.83111763  0.34705365    -0.04900
O188        O  0.28992211  0.70229497  0.29448189    -0.86400
H189        H  0.32742065  0.66264540  0.26686978    -0.04700
H190        H  0.16071331  0.73630407  0.33235379    -0.04900
C191        C  0.31992922  0.69412591  0.27332124     0.88700
C192        C  0.27359824  0.82375215  0.31512201     0.89300
C193        C  0.19187046  0.73052279  0.32415990     0.89300
H194        H  0.23153701  0.67787414  0.16043392    -0.04800
O195        O  0.28023757  0.75993847  0.16265300    -0.73900
Mg196      Mg  0.24218947  0.65951054  0.28809037     1.58000
H197        H  0.33903201  0.77043051  0.17536460    -0.04900
C198        C  0.38956656  0.75821175  0.34290748     0.94300
O199        O  0.28009228  0.69220884  0.39162196    -0.81100
C200        C  0.25828360  0.66057042  0.38963889     0.94400
O201        O  0.30925075  0.89402403  0.22645049    -0.81100
Mg202      Mg  0.21123859  0.76374805  0.16180055     1.58200
O203        O  0.35734004  0.74150640  0.35542467    -0.79400
O204        O  0.10996091  0.72536129  0.19585658    -0.81100
C205        C  0.24920930  0.87504193  0.00279785    -0.00800
C206        C  0.50018011  0.24925629  0.62717706    -0.00800
O207        O  0.29787442  0.28146321  0.79657832    -0.86700
C208        C  0.17890725  0.30493471  0.77687881     0.89300
Mg209      Mg  0.34137577  0.28000474  0.74876592     1.58100
O210        O  0.20141086  0.20197421  0.79042610    -0.86400
O211        O  0.27501269  0.23733232  0.84001375    -0.73800
C212        C  0.25693946  0.17980944  0.59582066     0.94400
O213        O  0.25661890  0.34133334  0.73229737    -0.73600
O214        O  0.28005281  0.20913311  0.60414233    -0.81100
Mg215      Mg  0.25775049  0.33339175  0.80141321     1.58000
C216        C  0.15581884  0.11141751  0.72276428     0.94300
O217        O  0.25760878  0.33149198  0.87305997    -0.79300
H218        H  0.22472065  0.15830526  0.82500265    -0.04700
C219        C  0.18972721  0.23673046  0.67467791     0.89200
O220        O  0.33607600  0.21094768  0.74153658    -0.73800
O221        O  0.20753542  0.29285395  0.79776936    -0.86600
O222        O  0.14331816  0.14272246  0.74259002    -0.79400
C223        C  0.10482664  0.23484344  0.83268761     0.94400
C224        C  0.23705227  0.31420253  0.90096028     0.94300
Mg225      Mg  0.23639413  0.15912017  0.69534666     1.58000
O226        O  0.23686163  0.16122649  0.62328341    -0.79300
O227        O  0.23755213  0.15153982  0.76472666    -0.73600
O228        O  0.13763932  0.24785652  0.84778936    -0.79400
O229        O  0.30952594  0.37932940  0.79923240    -0.81100
O230        O  0.35595058  0.24531075  0.64925222    -0.79500
C231        C  0.22071624  0.17000472  0.79467051     0.88700
O232        O  0.28610590  0.19986487  0.69905419    -0.86600
O233        O  0.19564098  0.21049079  0.70057128    -0.86700
O234        O  0.21846339  0.25580534  0.65825876    -0.73800
Mg235      Mg  0.20621756  0.24359098  0.83991207     1.58000
O236        O  0.10381582  0.21573991  0.79859796    -0.81100
H237        H  0.33445323  0.24781750  0.83084999    -0.04900
O238        O  0.29257166  0.29054116  0.70727100    -0.86400
H239        H  0.27034254  0.33441557  0.67226269    -0.04700
H240        H  0.32030406  0.15497735  0.72083231    -0.04900
C241        C  0.27378121  0.32274281  0.70267635     0.88700
C242        C  0.30378996  0.25588147  0.82309897     0.89300
C243        C  0.31458197  0.18730794  0.71982400     0.89300
H244        H  0.15905097  0.24498210  0.66716252    -0.04800
O245        O  0.15733460  0.28082282  0.75570450    -0.73900
Mg246      Mg  0.28731600  0.24969774  0.65768414     1.58000
H247        H  0.17296964  0.33720193  0.77543174    -0.04900
C248        C  0.33970360  0.37954187  0.77483407     0.94300
O249        O  0.38983461  0.27598897  0.69927146    -0.81100
C250        C  0.38880907  0.25781255  0.66472959     0.94400
O251        O  0.21299246  0.28541865  0.89327109    -0.81100
Mg252      Mg  0.15243568  0.21149605  0.74884171     1.58200
O253        O  0.35170508  0.34794614  0.75536101    -0.79400
O254        O  0.18541429  0.11251923  0.69770356    -0.81100
C255        C  0.99393061  0.24845578  0.87065038    -0.00800
O256        O  0.80320342  0.20799900  0.20351859    -0.86700
C257        C  0.68354087  0.19170378  0.22308702     0.89300
Mg258      Mg  0.84615528  0.21417641  0.25208415     1.58100
O259        O  0.70891361  0.29049958  0.19465949    -0.86400
O260        O  0.78282319  0.24419059  0.15189908    -0.73800
C261        C  0.75973085  0.34194008  0.38731405     0.94400
O262        O  0.75943655  0.16158769  0.27603026    -0.73600
O263        O  0.78326619  0.31111188  0.38741849    -0.81100
Mg264      Mg  0.76157299  0.15775983  0.20624429     1.58000
C265        C  0.66195882  0.39013070  0.25505986     0.94300
O266        O  0.76097360  0.14584912  0.13602917    -0.79300
H267        H  0.73534879  0.32757670  0.15529712    -0.04700
C268        C  0.69548209  0.27401594  0.31674093     0.89200
O269        O  0.84368337  0.28360769  0.24939564    -0.73800
O270        O  0.71294239  0.19989664  0.20158206    -0.86600
O271        O  0.64948712  0.35764611  0.23776243    -0.79400
C272        C  0.61242342  0.25663650  0.15748533     0.94400
C273        C  0.74268209  0.15787278  0.10409062     0.94300
Mg274      Mg  0.74408225  0.34468397  0.28462501     1.58000
O275        O  0.74282658  0.35432161  0.35480591    -0.79300
O276        O  0.74658579  0.34158674  0.21462901    -0.73600
O277        O  0.64465021  0.23996354  0.14361069    -0.79400
O278        O  0.81150484  0.11110755  0.21484581    -0.81100
O279        O  0.86125036  0.26143943  0.34819915    -0.79500
C280        C  0.72983936  0.32032692  0.18685105     0.88700
O281        O  0.79351560  0.30308340  0.28921210    -0.86600
O282        O  0.70312387  0.29423823  0.28632741    -0.86700
O283        O  0.72310338  0.25793432  0.33791325    -0.73800
Mg284      Mg  0.71372361  0.24123872  0.15138263     1.58000
O285        O  0.61212829  0.27934167  0.18936059    -0.81100
H286        H  0.84169270  0.23349877  0.16477939    -0.04900
O287        O  0.79705998  0.21276861  0.29538253    -0.86400
H288        H  0.77107302  0.17588236  0.33517857    -0.04700
H289        H  0.82990745  0.34257343  0.26223093    -0.04900
C290        C  0.77634192  0.18295469  0.30354056     0.88700
C291        C  0.81061036  0.22814647  0.17295161     0.89300
C292        C  0.82286634  0.31111050  0.26746599     0.89300
H293        H  0.66434433  0.26860489  0.32463904    -0.04800
O294        O  0.66258413  0.21911583  0.24100487    -0.73900
Mg295      Mg  0.79204289  0.26103142  0.33915448     1.58000
H296        H  0.67657755  0.16020822  0.22823858    -0.04900
C297        C  0.84197996  0.11223629  0.23839224     0.94300
O298        O  0.89352698  0.22249796  0.30187929    -0.81100
C299        C  0.89329176  0.24417732  0.33445362     0.94400
O300        O  0.72077691  0.18987627  0.10420738    -0.81100
Mg301      Mg  0.65985617  0.28841857  0.23845375     1.58200
O302        O  0.85484145  0.14516103  0.25436021    -0.79400
O303        O  0.69333131  0.39084489  0.27735501    -0.81100
C304        C  0.87305888  0.99978583  0.25168767    -0.00800
C305        C  0.00466592  0.24581319  0.37262623    -0.00800
O306        O  0.25623925  0.32116787  0.21579912    -0.86700
C307        C  0.16078376  0.24763054  0.23810147     0.89300
Mg308      Mg  0.30604842  0.30146597  0.17786759     1.58100
O309        O  0.22483482  0.26126095  0.32210440    -0.86400
O310        O  0.24283053  0.34364433  0.27798281    -0.73800
C311        C  0.35370438  0.11971699  0.24855706     0.94400
O312        O  0.21797226  0.25299859  0.15771084    -0.73600
O313        O  0.35832985  0.14202707  0.21773951    -0.81100
Mg314      Mg  0.19783243  0.31241324  0.19057898     1.58000
C315        C  0.26258262  0.15990501  0.38789229     0.94300
O316        O  0.17460572  0.37389497  0.21803705    -0.79300
H317        H  0.25342436  0.29781424  0.36160040    -0.04700
C318        C  0.24308675  0.15911711  0.25237069     0.89200
O319        O  0.34245721  0.28677948  0.23572411    -0.73800
O320        O  0.18132058  0.27842166  0.24339219    -0.86600
O321        O  0.23084696  0.18064412  0.38008430    -0.79400
C322        C  0.11982249  0.24932431  0.34903294     0.94400
C323        C  0.15333304  0.38512520  0.24872275     0.94300
Mg324      Mg  0.30847083  0.19182719  0.30674386     1.58000
O325        O  0.33249109  0.13087222  0.27929745    -0.79300
O326        O  0.28782197  0.25092493  0.33969938    -0.73600
O327        O  0.12792758  0.27920286  0.32609790    -0.79400
O328        O  0.21465392  0.34679581  0.13426966    -0.81100
O329        O  0.37779425  0.22396465  0.17132319    -0.79500
C330        C  0.25488968  0.27096479  0.34218063     0.88700
O331        O  0.32467201  0.22576209  0.25384901    -0.86600
O332        O  0.25013453  0.18244354  0.28147351    -0.86700
O333        O  0.26349030  0.15975145  0.21939887    -0.73800
Mg334      Mg  0.18655318  0.30943807  0.30071126     1.58000
O335        O  0.14542956  0.22142174  0.35626223    -0.81100
H336        H  0.28833966  0.36500300  0.24294662    -0.04900
O337        O  0.28082651  0.24215219  0.17554350    -0.86400
H338        H  0.25200112  0.20566988  0.13613860    -0.04700
H339        H  0.36646699  0.25753800  0.28409594    -0.04900
C340        C  0.25072315  0.23260614  0.15544662     0.88700
C341        C  0.26338763  0.34425950  0.24507633     0.89300
C342        C  0.34555513  0.25634686  0.25889980     0.89300
H343        H  0.21830866  0.13818879  0.25469606    -0.04800
O344        O  0.16411047  0.21706621  0.26109174    -0.73900
Mg345      Mg  0.31938670  0.19429283  0.19667522     1.58000
H346        H  0.13999001  0.24635838  0.21280481    -0.04900
C347        C  0.24363329  0.34214374  0.10917336     0.94300
O348        O  0.36029328  0.28108282  0.14018669    -0.81100
C349        C  0.38584021  0.25320308  0.14769882     0.94400
O350        O  0.14818266  0.36251973  0.27932056    -0.81100
Mg351      Mg  0.20004997  0.20160282  0.31914168     1.58200
O352        O  0.27476418  0.32072042  0.11723996    -0.79400
O353        O  0.29191348  0.15709037  0.36296906    -0.81100
C354        C  0.25484978  0.38053399  0.99808750    -0.00800
C355        C  0.37962220  0.00459498  0.25189891    -0.00800
O356        O  0.92857150  0.00860556  0.47305924    -0.86700
C357        C  0.99272266  0.90230465  0.48413916     0.89300
Mg358      Mg  0.94894091  0.05728217  0.43574887     1.58100
O359        O  0.99867418  0.96932608  0.56818701    -0.86400
O360        O  0.91321799  0.99750246  0.53696858    -0.73800
C361        C  0.14283414  0.07652995  0.47739588     0.94400
O362        O  0.98334661  0.96290108  0.40598693    -0.73600
O363        O  0.11620026  0.08338805  0.45076309    -0.81100
Mg364      Mg  0.92776568  0.94936662  0.44527850     1.58000
C365        C  0.10676581  0.99205371  0.62389138     0.94300
O366        O  0.86895691  0.93091106  0.47943030    -0.79300
H367        H  0.97301110  0.00234048  0.61322463    -0.04700
C368        C  0.09026736  0.97158212  0.48642905     0.89200
O369        O  0.97643420  0.08891196  0.49243254    -0.73800
O370        O  0.96620422  0.92758103  0.49332351    -0.86600
O371        O  0.08117597  0.96442665  0.61626966    -0.79400
C372        C  0.00026402  0.86432309  0.59692745     0.94400
C373        C  0.86150512  0.90989127  0.51089968     0.94300
Mg374      Mg  0.07682937  0.04114628  0.54607602     1.70800
O375        O  0.13542180  0.05675788  0.50972566    -0.79300
O376        O  0.02104705  0.02929688  0.58664070    -0.73600
O377        O  0.96951859  0.87566266  0.57673689    -0.79400
O378        O  0.88968351  0.97175799  0.39235245    -0.81100
O379        O  0.03360224  0.11723966  0.41767993    -0.79500
C380        C  0.99658108  0.00003802  0.59041834     0.88700
O381        O  0.03754747  0.06362068  0.49941190    -0.86600
O382        O  0.07356515  0.98202891  0.51883324    -0.86700
O383        O  0.08697923  0.99241263  0.45425261    -0.73800
Mg384      Mg  0.94435695  0.93741611  0.55413968     1.58000
O385        O  0.03215085  0.88515343  0.59888726    -0.81100
H386        H  0.89182427  0.04549734  0.50533753    -0.04900
O387        O  0.00306261  0.02382647  0.42436137    -0.86400
H388        H  0.02973092  0.99207476  0.37908887    -0.04700
H389        H  0.01555620  0.10759139  0.53625965    -0.04900
C390        C  0.00614386  0.99335481  0.40193118     0.88700
C391        C  0.91018695  0.01820125  0.50473751     0.89300
C392        C  0.01048087  0.08770343  0.51023439     0.89300
H393        H  0.10738605  0.94349128  0.48517703    -0.04800
O394        O  0.02622454  0.90093155  0.50292461    -0.73900
Mg395      Mg  0.05763279  0.05393260  0.43802202     1.58000
H396        H  0.98759037  0.88133460  0.45899450    -0.04900
C397        C  0.89669430  0.00052829  0.36792996     0.94300
O398        O  0.96961894  0.11093233  0.39842127    -0.81100
C399        C  0.00213256  0.13101928  0.40025602     0.94400
O400        O  0.88705853  0.90480698  0.53910179    -0.81100
Mg401      Mg  0.05295835  0.93537682  0.55844401     1.58200
O402        O  0.91998580  0.02986608  0.37714929    -0.79400
O403        O  0.11612677  0.01849935  0.59778324    -0.81100
O404        O  0.04892124  0.03781668  0.95025927    -0.86700
C405        C  0.92928426  0.01667675  0.93722874     0.89300
Mg406      Mg  0.09157055  0.98921553  0.95609218     1.58100
O407        O  0.95494097  0.05012051  0.03588857    -0.86400
O408        O  0.02839837  0.08926686  0.98864728    -0.73800
C409        C  0.00777904  0.86419131  0.09105869     0.94400
O410        O  0.00553715  0.96401070  0.90300542    -0.73600
O411        O  0.02928554  0.86181879  0.05872468    -0.81100
Mg412      Mg  0.00656348  0.03369659  0.90034096     1.58000
C413        C  0.91014028  0.99517043  0.13858853     0.94300
O414        O  0.00544106  0.10313960  0.89006092    -0.79300
H415        H  0.97976767  0.09233720  0.07210602    -0.04700
C416        C  0.94097390  0.92910205  0.02171056     0.89200
O417        O  0.08978495  0.99468468  0.02592266    -0.73800
O418        O  0.95845133  0.03889534  0.94412488    -0.86600
O419        O  0.89630955  0.01065426  0.10591045    -0.79400
C420        C  0.85821514  0.08666669  0.00175725     0.94400
C421        C  0.98776816  0.13539881  0.90327487     0.94300
Mg422      Mg  0.99175251  0.96537312  0.09142117     1.58000
O423        O  0.99155097  0.89733113  0.10339334    -0.79300
O424        O  0.99329611  0.03451538  0.08760441    -0.73600
O425        O  0.89030186  0.09891894  0.98453465    -0.79400
O426        O  0.05674073  0.02594688  0.85270208    -0.81100
O427        O  0.10561407  0.89709958  0.00725623    -0.79500
C428        C  0.97544617  0.06037419  0.06567205     0.88700
O429        O  0.03906300  0.95848384  0.04735435    -0.86600
O430        O  0.94889601  0.95992655  0.04211070    -0.86700
O431        O  0.96819764  0.90788905  0.00401513    -0.73800
Mg432      Mg  0.95930528  0.09050359  0.98599305     1.58000
O433        O  0.85811616  0.05656326  0.02566509    -0.81100
H434        H  0.08724818  0.07638194  0.97690700    -0.04900
O435        O  0.04198671  0.94684166  0.95566015    -0.86400
H436        H  0.01742795  0.90563544  0.91804640    -0.04700
H437        H  0.07693426  0.98635862  0.08567936    -0.04900
C438        C  0.02204083  0.93741333  0.92520952     0.88700
C439        C  0.05618915  0.06830826  0.97145612     0.89300
C440        C  0.06904136  0.97947725  0.05436435     0.89300
H441        H  0.90974895  0.92114361  0.01713204    -0.04800
O442        O  0.90868049  0.00128757  0.96572341    -0.73900
Mg443      Mg  0.03697944  0.90637214  0.00632816     1.58000
H444        H  0.92196656  0.00895000  0.90595232    -0.04900
C445        C  0.08886553  0.00440349  0.85301597     0.94300
O446        O  0.13820416  0.93875314  0.96552725    -0.81100
C447        C  0.13768560  0.90872486  0.98959866     0.94400
O448        O  0.96600431  0.13595066  0.93531950    -0.81100
Mg449      Mg  0.90587904  0.00745697  0.03557600     1.58200
O450        O  0.10153252  0.98727736  0.88539648    -0.79400
O451        O  0.94272885  0.97449578  0.13911524    -0.81100
O452        O  0.50959614  0.97312628  0.42895350    -0.86700
C453        C  0.41043793  0.98589374  0.50128996     0.89300
Mg454      Mg  0.55950618  0.93653899  0.44793113     1.58100
O455        O  0.47226123  0.07123632  0.49845113    -0.86400
O456        O  0.49518862  0.03564009  0.41174006    -0.73800
C457        C  0.59611327  0.99366781  0.63829278     0.94400
O458        O  0.47057028  0.90910694  0.48991022    -0.73600
O459        O  0.60165336  0.96516569  0.61237803    -0.81100
Mg460      Mg  0.45199058  0.94505882  0.43321805     1.58000
C461        C  0.50163176  0.13366659  0.60360021     0.94300
O462        O  0.42952822  0.97556736  0.37409852    -0.79300
H463        H  0.50043748  0.11454442  0.46757864    -0.04700
C464        C  0.48672861  0.99772829  0.59530904     0.89200
O465        O  0.59275077  0.99427681  0.46980401    -0.73800
O466        O  0.43231093  0.99415237  0.47197522    -0.86600
O467        O  0.47199436  0.12429095  0.58075327    -0.79400
C468        C  0.36560851  0.09390051  0.50764956     0.94400
C469        C  0.40696466  0.00599664  0.36641545     0.94300
Mg470      Mg  0.55163434  0.05583354  0.57139945     1.58000
O471        O  0.57407736  0.02466012  0.63091720    -0.79300
O472        O  0.53296070  0.09180409  0.51448829    -0.73600
O473        O  0.37648375  0.07273240  0.47662129    -0.79400
O474        O  0.47220488  0.89151618  0.39450353    -0.81100
O475        O  0.62640143  0.92672896  0.52807678    -0.79500
C476        C  0.50144230  0.09355229  0.49253578     0.88700
O477        O  0.57186163  0.00679028  0.53245708    -0.86600
O478        O  0.49405048  0.02805451  0.57494301    -0.86700
O479        O  0.50808947  0.96555594  0.59220396    -0.73800
Mg480      Mg  0.43696166  0.05300641  0.44694988     1.58000
O481        O  0.38914601  0.10095330  0.53735789    -0.81100
H482        H  0.54258485  0.00322128  0.38841730    -0.04900
O483        O  0.53100733  0.93029926  0.50559935    -0.86400
H484        H  0.50357455  0.88661025  0.53656875    -0.04700
H485        H  0.61342731  0.04075795  0.50525816    -0.04900
C486        C  0.50218582  0.90762423  0.51164737     0.88700
C487        C  0.51676393  0.00356985  0.40864392     0.89300
C488        C  0.59366179  0.01491255  0.50300633     0.89300
H489        H  0.46092883  0.99826101  0.61555937    -0.04800
O490        O  0.41111623  0.00651830  0.53447259    -0.73900
Mg491      Mg  0.56613014  0.94777109  0.55717812     1.58000
H492        H  0.39084105  0.95992835  0.49894191    -0.04900
C493        C  0.50115275  0.86716460  0.40143232     0.94300
O494        O  0.61322044  0.89907168  0.46720276    -0.81100
C495        C  0.63648823  0.90474471  0.49735840     0.94400
O496        O  0.40098069  0.03476170  0.39195660    -0.81100
Mg497      Mg  0.44388414  0.06444360  0.55623903     1.58200
O498        O  0.53101044  0.87688885  0.42378063    -0.79400
O499        O  0.53061569  0.10921978  0.61028849    -0.81100
C500        C  0.25054256  0.11432145  0.49684539    -0.00800
O501        O  0.53434445  0.04899061  0.95134659    -0.86700
C502        C  0.55482168  0.92907702  0.96905472     0.89300
Mg503      Mg  0.53295035  0.09201440  0.00069358     1.58100
O504        O  0.45363712  0.95359774  0.95085217    -0.86400
O505        O  0.49195336  0.02716253  0.90479525    -0.73800
C506        C  0.41466549  0.00752874  0.13929540     0.94400
O507        O  0.58950598  0.00549725  0.01741784    -0.73600
O508        O  0.44586006  0.02986426  0.13858644    -0.81100
Mg509      Mg  0.58497391  0.00774694  0.94729257     1.58000
C510        C  0.36107382  0.90573848  0.01276587     0.94300
O511        O  0.58421117  0.00953963  0.87516978    -0.79300
H512        H  0.41215329  0.97353212  0.91054393    -0.04700
C513        C  0.47991167  0.93986918  0.06826794     0.89200
O514        O  0.46390606  0.08992530  0.00285755    -0.73800
O515        O  0.54407996  0.95785214  0.94761151    -0.86600
O516        O  0.39286699  0.89149818  0.99566102    -0.79400
C517        C  0.48719591  0.85563331  0.90853452     0.94400
C518        C  0.56713049  0.98977949  0.84594060     0.94300
Mg519      Mg  0.40629538  0.98925779  0.03858617     1.58000
O520        O  0.40089131  0.99000243  0.10752643    -0.79300
O521        O  0.40129113  0.99083398  0.96925726    -0.73600
O522        O  0.50053240  0.88853196  0.89404326    -0.79400
O523        O  0.63192275  0.05858787  0.95231368    -0.81100
O524        O  0.49106401  0.10714034  0.09760581    -0.79500
C525        C  0.42133564  0.97187062  0.94203502     0.88700
O526        O  0.44849556  0.03799280  0.04056522    -0.86600
O527        O  0.45681834  0.94654536  0.03958866    -0.86700
O528        O  0.49783107  0.96824030  0.08731799    -0.73800
Mg529      Mg  0.49715881  0.95776124  0.90260794     1.58000
O530        O  0.46752767  0.85458945  0.94190409    -0.81100
H531        H  0.50188268  0.08674183  0.91716579    -0.04900
O532        O  0.53902608  0.04210127  0.04226735    -0.86400
H533        H  0.58042988  0.01630256  0.07792926    -0.04700
H534        H  0.40659650  0.07533375  0.01808608    -0.04900
C535        C  0.57011035  0.02163149  0.04722790     0.88700
C536        C  0.50968238  0.05565966  0.92397107     0.89300
C537        C  0.43831139  0.06814159  0.02100427     0.89300
H538        H  0.48653132  0.90876706  0.07607055    -0.04800
O539        O  0.52987824  0.90782740  0.98891391    -0.73900
Mg540      Mg  0.49329728  0.03746438  0.08848294     1.58000
H541        H  0.58669552  0.92285631  0.97234617    -0.04900
C542        C  0.63304426  0.08850149  0.97763679     0.94300
O543        O  0.52807470  0.13968502  0.05174657    -0.81100
C544        C  0.50687526  0.13949244  0.08422890     0.94400
O545        O  0.53935958  0.96451447  0.85187185    -0.81100
Mg546      Mg  0.46091718  0.90215502  0.99230738     1.58200
O547        O  0.60191600  0.10069158  0.99746687    -0.79400
O548        O  0.36069690  0.93867773  0.03374914    -0.81100
C549        C  0.50066414  0.25209599  0.12232372    -0.00800
O550        O  0.53428851  0.56926449  0.00551157    -0.86700
C551        C  0.51237238  0.49443667  0.90759817     0.89300
Mg552      Mg  0.57121293  0.55100609  0.05576403     1.58100
O553        O  0.43146344  0.50893696  0.97553979    -0.86400
O554        O  0.47356849  0.59247682  0.99276077    -0.73800
C555        C  0.50405910  0.36738135  0.09989590     0.94400
O556        O  0.59194027  0.50085121  0.96607377    -0.73600
O557        O  0.53402207  0.39044340  0.10592001    -0.81100
Mg558      Mg  0.55929364  0.55924485  0.94605997     1.58000
C559        C  0.36616680  0.41027954  0.01189448     0.94300
O560        O  0.53233734  0.61932786  0.92207986    -0.79300
H561        H  0.39236948  0.54521434  0.00565131    -0.04700
C562        C  0.49998309  0.40738651  0.99001875     0.89200
O563        O  0.51410312  0.53579801  0.09254632    -0.73800
O564        O  0.50729051  0.52500071  0.92953588    -0.86600
O565        O  0.37456778  0.43210579  0.98145543    -0.79400
C566        C  0.40088373  0.49679667  0.87079761     0.94400
C567        C  0.50178176  0.62972489  0.90114734     0.94300
Mg568      Mg  0.44624232  0.43906046  0.05742998     1.58000
O569        O  0.47381159  0.37819032  0.07875710    -0.79300
O570        O  0.41346143  0.49809720  0.03885214    -0.73600
O571        O  0.42481301  0.52603692  0.87806880    -0.79400
O572        O  0.61461227  0.59422131  0.96268335    -0.81100
O573        O  0.57904951  0.47388575  0.12692690    -0.79500
C574        C  0.41145889  0.51844642  0.00626055     0.88700
O575        O  0.49777836  0.47369890  0.07455026    -0.86600
O576        O  0.47146107  0.43072859  0.99804936    -0.86700
O577        O  0.53249353  0.40798585  0.01053805    -0.73800
Mg578      Mg  0.45095157  0.55629013  0.93660869     1.58000
O579        O  0.39497342  0.46879058  0.89613849    -0.81100
H580        H  0.50910126  0.61482797  0.03803937    -0.04900
O581        O  0.57446446  0.49122895  0.02974316    -0.86400
H582        H  0.61387847  0.45487678  0.00022901    -0.04700
H583        H  0.46705312  0.50555712  0.11707773    -0.04900
C584        C  0.59448904  0.48140022  0.99914991     0.88700
C585        C  0.50618803  0.59323655  0.01302667     0.89300
C586        C  0.49205043  0.50463883  0.09581879     0.89300
H587        H  0.49750587  0.38644669  0.96440379    -0.04800
O588        O  0.48996255  0.46354296  0.91066919    -0.73900
Mg589      Mg  0.55437296  0.44320585  0.06776653     1.58000
H590        H  0.53698847  0.49364664  0.88588472    -0.04900
C591        C  0.63911075  0.59064882  0.99203615     0.94300
O592        O  0.60818289  0.53216410  0.11039624    -0.81100
C593        C  0.60161267  0.50398387  0.13551626     0.94400
O594        O  0.47106249  0.60740366  0.89719379    -0.81100
Mg595      Mg  0.43354456  0.44953880  0.94892824     1.58200
O596        O  0.63064660  0.57083777  0.02401436    -0.79400
O597        O  0.39108689  0.40383693  0.04031086    -0.81100
O598        O  0.94886200  0.53988540  0.54287922    -0.86700
C599        C  0.06868895  0.52298059  0.55894391     0.89300
Mg600      Mg  0.90720367  0.49167339  0.53619667     1.58100
O601        O  0.04063689  0.55105041  0.45996881    -0.86400
O602        O  0.96632982  0.59217767  0.50693018    -0.73800
C603        C  0.99550356  0.35921209  0.40724510     0.94400
O604        O  0.99441733  0.46829079  0.58998888    -0.73600
O605        O  0.97239749  0.35894420  0.43838194    -0.81100
Mg606      Mg  0.99022266  0.53761355  0.59346037     1.58000
C607        C  0.08961866  0.49340102  0.35971003     0.94300
O608        O  0.98771062  0.60654077  0.60482889    -0.79300
H609        H  0.01336014  0.59008999  0.42285765    -0.04700
C610        C  0.05884113  0.43003508  0.47570963     0.89200
O611        O  0.90983966  0.49460377  0.46665491    -0.73800
O612        O  0.03848467  0.54364648  0.55114924    -0.86600
O613        O  0.10107924  0.51071457  0.39259014    -0.79400
C614        C  0.13558719  0.59109833  0.49211034     0.94400
C615        C  0.00410648  0.63904541  0.59277646     0.94300
Mg616      Mg  0.00891337  0.46135265  0.40466290     1.58000
O617        O  0.01193854  0.39162606  0.39468220    -0.79300
O618        O  0.00412119  0.53091469  0.40788167    -0.73600
O619        O  0.10367453  0.60399899  0.51005446    -0.79400
O620        O  0.94005243  0.52936352  0.63932046    -0.81100
O621        O  0.89428709  0.39630131  0.48798372    -0.79500
C622        C  0.01973930  0.55873257  0.42983717     0.88700
O623        O  0.96039665  0.45567813  0.44678301    -0.86600
O624        O  0.05004279  0.46013154  0.45547086    -0.86700
O625        O  0.03205265  0.40843434  0.49221093    -0.73800
Mg626      Mg  0.03514517  0.59382400  0.50954010     1.58000
O627        O  0.13617797  0.55936965  0.46945839    -0.81100
H628        H  0.90827851  0.57782846  0.51911701    -0.04900
O629        O  0.95716083  0.44907426  0.53818635    -0.86400
H630        H  0.98373385  0.40940140  0.57510270    -0.04700
H631        H  0.92340521  0.48250960  0.40733842    -0.04900
C632        C  0.97795298  0.44089882  0.56823097     0.88700
C633        C  0.93977024  0.57043557  0.52351346     0.89300
C634        C  0.93070155  0.47706871  0.43889589     0.89300
H635        H  0.09026819  0.42286732  0.48085245    -0.04800
O636        O  0.08977049  0.50595094  0.53105965    -0.73900
Mg637      Mg  0.96311715  0.40611426  0.48906373     1.58000
H638        H  0.07633132  0.51780908  0.59046877    -0.04900
C639        C  0.90845098  0.50777185  0.63795138     0.94300
O640        O  0.86165393  0.44205725  0.52728294    -0.81100
C641        C  0.86220532  0.40996249  0.50514252     0.94400
O642        O  0.02660533  0.63997469  0.56120746    -0.81100
Mg643      Mg  0.09117147  0.50909542  0.46147349     1.58200
O644        O  0.89615892  0.49078672  0.60517385    -0.79400
O645        O  0.05916148  0.47013696  0.35825288    -0.81100
O646        O  0.04722340  0.45112708  0.03508971    -0.86700
C647        C  0.06041445  0.57295934  0.02076435     0.89300
Mg648      Mg  0.04095855  0.40836136  0.98581392     1.58100
O649        O  0.96362180  0.54460725  0.05240192    -0.86400
O650        O  0.01129184  0.46976486  0.08855220    -0.73800
C651        C  0.90920081  0.49755441  0.86297174     0.94400
O652        O  0.09108164  0.49773002  0.96263078    -0.73600
O653        O  0.93950331  0.47357535  0.86059471    -0.81100
Mg654      Mg  0.09582189  0.49422222  0.03213432     1.58000
C655        C  0.86283329  0.59117381  0.99942502     0.94300
O656        O  0.10819886  0.49193044  0.10126289    -0.79300
H657        H  0.92825477  0.51789244  0.09322828    -0.04700
C658        C  0.97802587  0.56113586  0.93130182     0.89200
O659        O  0.97214665  0.41002571  0.99194595    -0.73800
O660        O  0.05315034  0.54232450  0.04062182    -0.86600
O661        O  0.89506196  0.60423871  0.01585384    -0.79400
C662        C  0.99547545  0.64013403  0.09377222     0.94400
C663        C  0.09603832  0.50869383  0.13448993     0.94300
Mg664      Mg  0.90895155  0.51050051  0.96500413     1.58000
O665        O  0.89771282  0.51413566  0.89642531    -0.79300
O666        O  0.91286896  0.50628673  0.03441491    -0.73600
O667        O  0.01372389  0.60803063  0.10495809    -0.79400
O668        O  0.14225875  0.44503884  0.02090811    -0.81100
O669        O  0.98929735  0.39449615  0.89334248    -0.79500
C670        C  0.93444788  0.52343477  0.06142428     0.88700
O671        O  0.95143290  0.46204888  0.95672428    -0.86600
O672        O  0.95800924  0.55298573  0.96196312    -0.86700
O673        O  0.99403893  0.53369774  0.90865424    -0.73800
Mg674      Mg  0.01329622  0.53914173  0.09259467     1.58000
O675        O  0.97227329  0.64073726  0.06293795    -0.81100
H676        H  0.02295181  0.41103399  0.07278674    -0.04900
O677        O  0.04105793  0.45839635  0.94431322    -0.86400
H678        H  0.07611995  0.48587572  0.90375403    -0.04700
H679        H  0.91318461  0.42416423  0.98341354    -0.04900
C680        C  0.06990972  0.48014709  0.93551929     0.88700
C681        C  0.02765684  0.44261309  0.06589066     0.89300
C682        C  0.94420052  0.43164060  0.97696086     0.89300
H683        H  0.98336897  0.59262192  0.92446827    -0.04800
O684        O  0.03248509  0.59442055  0.00559979    -0.73900
Mg685      Mg  0.99102744  0.46419758  0.90453199     1.58000
H686        H  0.09144155  0.58071792  0.01473364    -0.04900
C687        C  0.14211947  0.41342459  0.99806656     0.94300
O688        O  0.03100782  0.36127240  0.93478918    -0.81100
C689        C  0.00680709  0.36188312  0.90463195     0.94400
O690        O  0.06465309  0.53114686  0.13642638    -0.81100
Mg691      Mg  0.96373971  0.59519501  0.01148506     1.58200
O692        O  0.11003662  0.39968543  0.98167819    -0.79400
O693        O  0.86239053  0.55993708  0.97606992    -0.81100
C694        C  0.12661458  0.50050268  0.24792458    -0.00800
O695        O  0.54837487  0.54012335  0.46108553    -0.86700
C696        C  0.42881431  0.52288049  0.44415160     0.89300
Mg697      Mg  0.59080608  0.49167354  0.46555611     1.58100
O698        O  0.45369624  0.55016042  0.54478219    -0.86400
O699        O  0.52876964  0.59087205  0.50079266    -0.73800
C700        C  0.50495052  0.35996850  0.58999945     0.94400
O701        O  0.50425613  0.46877880  0.41074032    -0.73600
O702        O  0.52778340  0.35916801  0.55866712    -0.81100
Mg703      Mg  0.50700428  0.53816879  0.41036349     1.58000
C704        C  0.40527874  0.48811431  0.64292399     0.94300
O705        O  0.50821068  0.60731440  0.40260616    -0.79300
H706        H  0.47787405  0.58958341  0.58450250    -0.04700
C707        C  0.43946697  0.42923868  0.52304382     0.89200
O708        O  0.58785654  0.49444223  0.53539994    -0.73800
O709        O  0.45853729  0.54356021  0.45307519    -0.86600
O710        O  0.39263503  0.50637687  0.61122977    -0.79400
C711        C  0.35905606  0.58974983  0.51129030     0.94400
C712        C  0.49192049  0.64013531  0.41603419     0.94300
Mg713      Mg  0.48813193  0.46108065  0.59589454     1.58000
O714        O  0.48785253  0.39236944  0.60317974    -0.79300
O715        O  0.48995566  0.53056994  0.59662552    -0.73600
O716        O  0.39135909  0.60273572  0.49507753    -0.79400
O717        O  0.55715792  0.52990007  0.36322851    -0.81100
O718        O  0.60534864  0.39719850  0.51140745    -0.79500
C719        C  0.47335934  0.55814987  0.57579555     0.88700
O720        O  0.53693590  0.45667656  0.55329011    -0.86600
O721        O  0.44682923  0.45907207  0.54513144    -0.86700
O722        O  0.46724775  0.40836394  0.50577868    -0.73800
Mg723      Mg  0.46000984  0.59335333  0.49693930     1.58000
O724        O  0.35819923  0.55823289  0.53328871    -0.81100
H725        H  0.58738028  0.57712020  0.48894497    -0.04900
O726        O  0.54157919  0.44929310  0.46195869    -0.86400
H727        H  0.51606626  0.40980554  0.42319994    -0.04700
H728        H  0.57336978  0.48290004  0.59417074    -0.04900
C729        C  0.52113087  0.44126295  0.43145347     0.88700
C730        C  0.55618393  0.56988322  0.48310304     0.89300
C731        C  0.56648213  0.47756028  0.56232990     0.89300
H732        H  0.40839320  0.42170910  0.51691699    -0.04800
O733        O  0.40759663  0.50584057  0.47110534    -0.73900
Mg734      Mg  0.53619691  0.40648100  0.50964311     1.58000
H735        H  0.42166349  0.51778382  0.41233443    -0.04900
C736        C  0.58868836  0.50752341  0.36369359     0.94300
O737        O  0.63744799  0.44181308  0.47269240    -0.81100
C738        C  0.63735233  0.41031848  0.49462000     0.94400
O739        O  0.46931414  0.64117345  0.44763049    -0.81100
Mg740      Mg  0.40430564  0.50767598  0.54095246     1.58200
O741        O  0.60119592  0.49071450  0.39607404    -0.79400
O742        O  0.43758135  0.46695231  0.64258539    -0.81100
C743        C  0.99649802  0.75162927  0.62854119    -0.00800
O744        O  0.28914311  0.79575639  0.79309629    -0.86700
C745        C  0.27054220  0.67578682  0.81212211     0.89300
Mg746      Mg  0.24177710  0.83947979  0.78795123     1.58100
O747        O  0.29625603  0.69857770  0.71158852    -0.86400
O748        O  0.33875406  0.77415682  0.75385016    -0.73800
C749        C  0.10779101  0.75289877  0.66470746     0.94400
O750        O  0.21846111  0.75389637  0.84400378    -0.73600
O751        O  0.10810677  0.77624501  0.69605155    -0.81100
Mg752      Mg  0.28743874  0.75522623  0.84414892     1.58000
C753        C  0.23626674  0.65067498  0.61477227     0.94300
O754        O  0.35641854  0.75465501  0.85190005    -0.79300
H755        H  0.33528460  0.72158363  0.67182634    -0.04700
C756        C  0.17637599  0.68648033  0.73337661     0.89200
O757        O  0.24352238  0.83453322  0.71828250    -0.73800
O758        O  0.29119084  0.70517028  0.80237579    -0.86600
O759        O  0.25383015  0.63797567  0.64668887    -0.79400
C760        C  0.33539718  0.60334152  0.74530386     0.94400
C761        C  0.38817863  0.73685633  0.83830532     0.94300
Mg762      Mg  0.20786431  0.73348484  0.66031562     1.58000
O763        O  0.13923306  0.73412262  0.65189348    -0.79300
O764        O  0.27675042  0.73465446  0.65974437    -0.73600
O765        O  0.34876291  0.63620528  0.76088111    -0.79400
O766        O  0.28094517  0.80707809  0.89025629    -0.81100
O767        O  0.14831668  0.85355961  0.74142477    -0.79500
C768        C  0.30410779  0.71770253  0.68052275     0.88700
O769        O  0.20469435  0.78342744  0.70184539    -0.86600
O770        O  0.20594414  0.69292303  0.71140126    -0.86700
O771        O  0.15611884  0.71519182  0.75008965    -0.73800
Mg772      Mg  0.33996925  0.70501799  0.75838458     1.58000
O773        O  0.30348684  0.60212318  0.72380633    -0.81100
H774        H  0.32624931  0.83368220  0.76491665    -0.04900
O775        O  0.19882417  0.79068148  0.79254906    -0.86400
H776        H  0.15988514  0.76666226  0.83178045    -0.04700
H777        H  0.23024058  0.81833757  0.65996170    -0.04900
C778        C  0.19106129  0.77096301  0.82330038     0.88700
C779        C  0.31857624  0.80256058  0.77109591     0.89300
C780        C  0.22563507  0.81253569  0.69198492     0.89300
H781        H  0.16851283  0.65546970  0.73983955    -0.04800
O782        O  0.25257707  0.65387467  0.78578646    -0.73900
Mg783      Mg  0.15559394  0.78452973  0.74510337     1.58000
H784        H  0.26622988  0.66966811  0.84412246    -0.04900
C785        C  0.25911049  0.83909035  0.88971610     0.94300
O786        O  0.19301955  0.88773246  0.77910008    -0.81100
C787        C  0.16186725  0.88660596  0.75647405     0.94400
O788        O  0.38800747  0.71387163  0.80669752    -0.81100
Mg789      Mg  0.25386000  0.64944216  0.71609438     1.58200
O790        O  0.24201465  0.85148231  0.85737797    -0.79400
O791        O  0.21368368  0.68208153  0.61491500    -0.81100
C792        C  0.49958242  0.74326780  0.87387122    -0.00800
C793        C  0.42538970  0.74163557  0.86202296    -0.14800
C794        C  0.46289177  0.74096221  0.84580650    -0.30000
H795        H  0.42172019  0.74645682  0.89471338     0.14200
H796        H  0.46693443  0.73809052  0.81297401     0.14800
C797        C  0.03340665  0.75221740  0.65627997    -0.14800
C798        C  0.07084067  0.74881766  0.64043626    -0.30000
H799        H  0.02958874  0.75643713  0.68903022     0.14200
H800        H  0.07458019  0.74268320  0.60795529     0.14800
C801        C  0.11951388  0.50219339  0.17180773    -0.14800
C802        C  0.10207524  0.50363154  0.20896088    -0.30000
H803        H  0.15157322  0.49565365  0.16887659     0.14200
H804        H  0.06963157  0.50825584  0.21119393     0.14800
C805        C  0.99750601  0.67624674  0.61744800    -0.14800
C806        C  0.99875501  0.71354892  0.60146341    -0.30000
H807        H  0.99137318  0.67298776  0.64980407     0.14200
H808        H  0.00311499  0.71647238  0.56877069     0.14800
C809        C  0.11434180  0.49927668  0.32308644    -0.14800
C810        C  0.09898577  0.49962711  0.28522583    -0.30000
H811        H  0.14651652  0.50348593  0.32737303     0.14200
H812        H  0.06654566  0.49737241  0.28127914     0.14800
C813        C  0.50079403  0.70436633  0.89839608    -0.14800
C814        C  0.50242893  0.66794872  0.87917493    -0.30000
H815        H  0.49988554  0.70584329  0.93154085     0.14200
H816        H  0.50136731  0.66617466  0.84607380     0.14800
C817        C  0.50116520  0.29215372  0.09936625    -0.14800
C818        C  0.50354051  0.32791183  0.11997611    -0.30000
H819        H  0.49980432  0.29195401  0.06624484     0.14200
H820        H  0.50713497  0.32813765  0.15289887     0.14800
C821        C  0.49418580  0.81812319  0.88463155    -0.14800
C822        C  0.49472030  0.78097624  0.90110563    -0.30000
H823        H  0.49978708  0.82108752  0.85213327     0.14200
H824        H  0.49069481  0.77787844  0.93381554     0.14800
C825        C  0.50141278  0.17708228  0.10887179    -0.14800
C826        C  0.50330726  0.21489103  0.09375246    -0.30000
H827        H  0.49518103  0.17351990  0.14117343     0.14200
H828        H  0.50787655  0.21884271  0.06123218     0.14800
C829        C  0.32535379  0.11276551  0.50842268    -0.14800
C830        C  0.29142723  0.09258512  0.49851518    -0.30000
H831        H  0.32384808  0.14441589  0.51781023     0.14200
H832        H  0.29341958  0.06044129  0.49054745     0.14800
C833        C  0.99846325  0.82703021  0.62062787    -0.14800
C834        C  0.99707604  0.78994353  0.60293285    -0.30000
H835        H  0.00094016  0.82996930  0.65357539     0.14200
H836        H  0.99662694  0.78743840  0.56982495     0.14800
C837        C  0.18208896  0.09564604  0.47114542    -0.14800
C838        C  0.21650519  0.08419508  0.48954535    -0.30000
H839        H  0.18110504  0.12287282  0.45303642     0.14200
H840        H  0.21614250  0.05705789  0.50796680     0.14800
C841        C  0.40713543  0.00350882  0.21449418    -0.14800
C842        C  0.39112042  0.00337319  0.17691912    -0.30000
H843        H  0.43966290  0.00494178  0.21805059     0.14200
H844        H  0.35871566  0.00011034  0.17352190     0.14800
C845        C  0.38533072  0.00757202  0.32762642    -0.14800
C846        C  0.40376024  0.00272380  0.29128061    -0.30000
H847        H  0.35341685  0.01526878  0.32887729     0.14200
H848        H  0.43615174  0.99741191  0.29016816     0.14800
C849        C  0.21660044  0.40672141  0.99681540    -0.14800
C850        C  0.17977222  0.39026386  0.99202043    -0.30000
H851        H  0.21882785  0.43921491  0.00267275     0.14200
H852        H  0.17664832  0.35811903  0.98573722     0.14800
C853        C  0.29209305  0.40654291  0.00445800    -0.14800
C854        C  0.32785171  0.38882462  0.01263232    -0.30000
H855        H  0.29054726  0.43912384  0.99983831     0.14200
H856        H  0.32942290  0.35659578  0.01898012     0.14800
C857        C  0.13191269  0.42446251  0.24803944    -0.14800
C858        C  0.15078954  0.46059145  0.24640512    -0.30000
H859        H  0.09937791  0.42382349  0.25181894     0.14200
H860        H  0.18351610  0.46122291  0.24497103     0.14800
C861        C  0.25169224  0.14571675  0.46236289    -0.14800
C862        C  0.26476284  0.13464889  0.42467212    -0.30000
H863        H  0.23959175  0.17613559  0.46751192     0.14200
H864        H  0.27811262  0.10465876  0.42013125     0.14800
C865        C  0.42520914  0.25437835  0.12678555    -0.14800
C866        C  0.46089290  0.25019657  0.14608562    -0.30000
H867        H  0.42496554  0.26140684  0.09453294     0.14200
H868        H  0.46126398  0.24556429  0.17881813     0.14800
C869        C  0.37520379  0.08056827  0.24923567    -0.14800
C870        C  0.35602350  0.04478700  0.25175710    -0.30000
H871        H  0.40772027  0.08097827  0.24523469     0.14200
H872        H  0.32328624  0.04463843  0.25343714     0.14800
C873        C  0.24230283  0.36591450  0.07162960    -0.14800
C874        C  0.25186736  0.35141934  0.03405830    -0.30000
H875        H  0.23300676  0.39748013  0.07535364     0.14200
H876        H  0.25938118  0.31945195  0.02974726     0.14800
C877        C  0.00090977  0.28397824  0.39975687    -0.14800
C878        C  0.00266377  0.32134382  0.38354581    -0.30000
H879        H  0.99548956  0.28102512  0.43227459     0.14200
H880        H  0.00986031  0.32422401  0.35136911     0.14800
C881        C  0.00419951  0.16983278  0.37852429    -0.14800
C882        C  0.00416492  0.20666016  0.39738510    -0.30000
H883        H  0.00354919  0.16808460  0.34542163     0.14200
H884        H  0.00318411  0.20838788  0.43050696     0.14800
C885        C  0.04479807  0.24783338  0.34944600    -0.14800
C886        C  0.08025671  0.24724720  0.36954032    -0.30000
H887        H  0.04485075  0.25036370  0.31644031     0.14200
H888        H  0.08029248  0.24246373  0.40224284     0.14800
C889        C  0.88592503  0.99978261  0.17624336    -0.14800
C890        C  0.90112986  0.99749878  0.21441677    -0.30000
H891        H  0.85383000  0.00534424  0.17238821     0.14200
H892        H  0.93341555  0.99372120  0.21864443     0.14800
C893        C  0.89585526  0.00253288  0.29220738    -0.14800
C894        C  0.87606625  0.00013514  0.32821266    -0.30000
H895        H  0.92845575  0.00556169  0.29208577     0.14200
H896        H  0.84384482  0.99452701  0.32834274     0.14800
C897        C  0.84704941  0.03789577  0.24784356    -0.14800
C898        C  0.86435574  0.07472661  0.24705805    -0.30000
H899        H  0.81471599  0.03525969  0.24340472     0.14200
H900        H  0.89640952  0.07738530  0.25322790     0.14800
C901        C  0.93029343  0.24786114  0.35912318    -0.14800
C902        C  0.96821051  0.24495093  0.34397342    -0.30000
H903        H  0.92608410  0.25334457  0.39165158     0.14200
H904        H  0.97277862  0.24131638  0.31127200     0.14800
C905        C  0.57516624  0.25100568  0.13378109    -0.14800
C906        C  0.53769715  0.25166255  0.15009203    -0.30000
H907        H  0.57869264  0.24673664  0.10101012     0.14200
H908        H  0.53389966  0.25409599  0.18298249     0.14800
C909        C  0.99974309  0.28686975  0.89702314    -0.14800
C910        C  0.99933204  0.32421826  0.88069016    -0.30000
H911        H  0.00495341  0.28402287  0.92956158     0.14200
H912        H  0.99207276  0.32733531  0.84860135     0.14800
C913        C  0.99174355  0.17276878  0.87949452    -0.14800
C914        C  0.99169705  0.21036672  0.89669564    -0.30000
H915        H  0.99582119  0.16926932  0.84672040     0.14200
H916        H  0.98978564  0.21356914  0.92970141     0.14800
C917        C  0.06790389  0.24115297  0.85731231    -0.14800
C918        C  0.03030132  0.24380057  0.84195304    -0.30000
H919        H  0.07197847  0.24488104  0.89004587     0.14200
H920        H  0.02588152  0.24177420  0.80915968     0.14800
C921        C  0.23955225  0.32746911  0.94403346    -0.14800
C922        C  0.26063257  0.35979062  0.95644009    -0.30000
H923        H  0.22141077  0.31123335  0.96587423     0.14200
H924        H  0.27870077  0.37536913  0.93388844     0.14800
C925        C  0.25497869  0.16805361  0.55235151    -0.14800
C926        C  0.24156775  0.13203360  0.53930277    -0.30000
H927        H  0.26931233  0.18817189  0.53093503     0.14200
H928        H  0.23004077  0.11147155  0.56212737     0.14800
C929        C  0.49970745  0.28534426  0.59857724    -0.14800
C930        C  0.49972635  0.32339757  0.61425531    -0.30000
H931        H  0.50149702  0.28044771  0.56574708     0.14200
H932        H  0.49607704  0.32800355  0.64698010     0.14800
C933        C  0.49777419  0.20865917  0.60421349    -0.14800
C934        C  0.50219446  0.17352118  0.62422589    -0.30000
H935        H  0.49299077  0.20794835  0.57142465     0.14200
H936        H  0.50942354  0.17421372  0.65652659     0.14800
C937        C  0.46361503  0.25306182  0.65565181    -0.14800
C938        C  0.42592335  0.25182651  0.64032348    -0.30000
H939        H  0.46796172  0.25783005  0.68821236     0.14200
H940        H  0.42207758  0.24573607  0.60787787     0.14800
C941        C  0.25317430  0.84780868  0.96475535    -0.14800
C942        C  0.25401667  0.86380923  0.92720246    -0.30000
H943        H  0.25571972  0.81509099  0.96792185     0.14200
H944        H  0.24943861  0.89628337  0.92382084     0.14800
C945        C  0.28722234  0.90041203  0.00637956    -0.14800
C946        C  0.32381910  0.88252071  0.00817082    -0.30000
H947        H  0.28482456  0.93333923  0.00804383     0.14200
H948        H  0.32652720  0.84975824  0.00443920     0.14800
C949        C  0.17472350  0.88501172  0.99661735    -0.14800
C950        C  0.21161193  0.90163381  0.99828757    -0.30000
H951        H  0.17149496  0.85269158  0.00171288     0.14200
H952        H  0.21458729  0.93427263  0.99522231     0.14800
C953        C  0.24588883  0.86803863  0.07887638    -0.14800
C954        C  0.24502748  0.85024817  0.04149428    -0.30000
H955        H  0.25172291  0.90035899  0.08180948     0.14200
H956        H  0.24134772  0.81754582  0.03891155     0.14800
C957        C  0.35155355  0.96792221  0.24977373    -0.14800
C958        C  0.36601297  0.92966899  0.25300729    -0.30000
H959        H  0.31948593  0.97267762  0.24483488     0.14200
H960        H  0.39776908  0.92506061  0.25973079     0.14800
C961        C  0.15353754  0.53797286  0.25161681    -0.14800
C962        C  0.13760440  0.57591110  0.25068455    -0.30000
H963        H  0.18578810  0.53402987  0.25596970     0.14200
H964        H  0.10562800  0.57968040  0.24453860     0.14800
C965        C  0.03597575  0.75202435  0.15582887    -0.14800
C966        C  0.07366664  0.75359840  0.14042515    -0.30000
H967        H  0.03180342  0.74861691  0.18848257     0.14200
H968        H  0.07780485  0.75893647  0.10807374     0.14800
C969        C  0.99935555  0.71433190  0.10173528    -0.14800
C970        C  0.00049494  0.67736684  0.11844142    -0.30000
H971        H  0.99684910  0.71645216  0.06877510     0.14200
H972        H  0.00504369  0.67446779  0.15106515     0.14800
C973        C  0.00195351  0.79016576  0.10067282    -0.14800
C974        C  0.00183522  0.82813915  0.11632468    -0.30000
H975        H  0.00567980  0.78589870  0.06790977     0.14200
H976        H  0.99639625  0.83292888  0.14877100     0.14800
C977        C  0.24354784  0.64686909  0.54032727    -0.14800
C978        C  0.24231883  0.62801521  0.57641126    -0.30000
H979        H  0.24091306  0.67978054  0.53965692     0.14200
H980        H  0.24701841  0.59537180  0.57771048     0.14800
C981        C  0.28530700  0.59644128  0.50284365    -0.14800
C982        C  0.32196954  0.61344681  0.50527034    -0.30000
H983        H  0.28269435  0.56360317  0.50391312     0.14200
H984        H  0.32486854  0.64608416  0.50218443     0.14800
C985        C  0.20964803  0.59739141  0.49522555    -0.14800
C986        C  0.17265761  0.61459344  0.49726867    -0.30000
H987        H  0.21251257  0.56479267  0.49010059     0.14200
H988        H  0.16954774  0.64681796  0.50440519     0.14800
C989        C  0.25137357  0.65078832  0.46408601    -0.14800
C990        C  0.25270472  0.63547705  0.42580310    -0.30000
H991        H  0.25382958  0.68339113  0.46902720     0.14200
H992        H  0.24827906  0.60313239  0.42071511     0.14800
C993        C  0.60321136  0.50133408  0.21103590    -0.14800
C994        C  0.62239288  0.50568681  0.17504954    -0.30000
H995        H  0.57080229  0.49673643  0.21130576     0.14200
H996        H  0.65431863  0.51274194  0.17470690     0.14800
C997        C  0.59825268  0.50317024  0.28834506    -0.14800
C998        C  0.61333325  0.50216863  0.32648190    -0.30000
H999        H  0.56588484  0.50610955  0.28407197     0.14200
H1000       H  0.64551627  0.49739422  0.33060236     0.14800
C1001       C  0.65345670  0.46505063  0.25316843    -0.14800
C1002       C  0.63787634  0.42748733  0.24992766    -0.30000
H1003       H  0.68560222  0.46847159  0.25836572     0.14200
H1004       H  0.60606586  0.42405464  0.24297377     0.14800
C1005       C  0.75286815  0.36587735  0.42523248    -0.14800
C1006       C  0.75273915  0.35007277  0.46303166    -0.30000
H1007       H  0.74748478  0.39824415  0.42191460     0.14200
H1008       H  0.75624843  0.31750410  0.46661293     0.14800
C1009       C  0.67503807  0.38707360  0.49996138    -0.14800
C1010       C  0.71185282  0.40394302  0.49762562    -0.30000
H1011       H  0.67252685  0.35499546  0.50661903     0.14200
H1012       H  0.71429660  0.43639732  0.49283438     0.14800
C1013       C  0.82496472  0.38660695  0.50035955    -0.14800
C1014       C  0.78796845  0.40395688  0.50172143    -0.30000
H1015       H  0.82795796  0.35398746  0.49558782     0.14200
H1016       H  0.78516080  0.43679924  0.50450598     0.14800
C1017       C  0.34291069  0.52903937  0.75306133    -0.14800
C1018       C  0.35921597  0.56621189  0.75157084    -0.30000
H1019       H  0.31042307  0.52584132  0.75052140     0.14200
H1020       H  0.39147930  0.56958468  0.75600173     0.14800
C1021       C  0.34462928  0.45306271  0.76135585    -0.14800
C1022       C  0.36248971  0.41695977  0.76831150    -0.30000
H1023       H  0.31189807  0.45509591  0.76117373     0.14200
H1024       H  0.39514451  0.41439130  0.76661282     0.14800
C1025       C  0.39511385  0.49646916  0.79558485    -0.14800
C1026       C  0.37773945  0.49577569  0.83276983    -0.30000
H1027       H  0.42767196  0.49917978  0.79321809     0.14200
H1028       H  0.34554629  0.49052684  0.83532377     0.14800
C1029       C  0.39613812  0.48736082  0.71855762    -0.14800
C1030       C  0.38058524  0.49069765  0.68062173    -0.30000
H1031       H  0.42848633  0.48314162  0.72189591     0.14200
H1032       H  0.34860925  0.49711604  0.67713603     0.14800
C1033       C  0.74593105  0.13240488  0.06653794    -0.14800
C1034       C  0.74253637  0.14717486  0.02847930    -0.30000
H1035       H  0.75249012  0.10031822  0.07031771     0.14200
H1036       H  0.73810460  0.17963879  0.02482380     0.14800
C1037       C  0.70753233  0.09381468  0.98705468    -0.14800
C1038       C  0.67075494  0.11141970  0.98374862    -0.30000
H1039       H  0.71004570  0.06090015  0.98561997     0.14200
H1040       H  0.66802323  0.14419200  0.98726649     0.14800
C1041       C  0.82071397  0.10984398  0.99469896    -0.14800
C1042       C  0.78376146  0.09307887  0.99424039    -0.30000
H1043       H  0.82361676  0.14209238  0.98904930     0.14200
H1044       H  0.78096825  0.06049722  0.99789187     0.14800
C1045       C  0.15561766  0.96114554  0.74634959    -0.14800
C1046       C  0.13905069  0.92399629  0.74806142    -0.30000
H1047       H  0.18789662  0.96455667  0.75058056     0.14200
H1048       H  0.10702391  0.92075862  0.74203826     0.14800
C1049       C  0.15302069  0.03761557  0.73694812    -0.14800
C1050       C  0.13422661  0.07321864  0.72927015    -0.30000
H1051       H  0.18574010  0.03649502  0.73845955     0.14200
H1052       H  0.10148435  0.07467876  0.72972677     0.14800
C1053       C  0.10656712  0.99262012  0.69959333    -0.14800
C1054       C  0.12689743  0.99332382  0.66376342    -0.30000
H1055       H  0.07397126  0.98956197  0.69945919     0.14200
H1056       H  0.15912195  0.99894643  0.66381947     0.14800
C1057       C  0.10007961  0.00258697  0.77700582    -0.14800
C1058       C  0.11416656  0.00068656  0.81571556    -0.30000
H1059       H  0.06788029  0.00604560  0.77199264     0.14200
H1060       H  0.14613315  0.99509389  0.82042301     0.14800
C1061       C  0.46409280  0.75147237  0.35103362    -0.14800
C1062       C  0.42648181  0.75222836  0.36699915    -0.30000
H1063       H  0.46817449  0.75300262  0.31819665     0.14200
H1064       H  0.42257357  0.74878215  0.39967672     0.14800
C1065       C  0.49845318  0.67703090  0.39205041    -0.14800
C1066       C  0.49757970  0.71526961  0.40750250    -0.30000
H1067       H  0.50475030  0.67244485  0.35972650     0.14200
H1068       H  0.49298152  0.72029828  0.44004050     0.14800
C1069       C  0.50065098  0.79219230  0.40213283    -0.14800
C1070       C  0.50068750  0.82716152  0.38135675    -0.30000
H1071       H  0.50088105  0.79312448  0.43528969     0.14200
H1072       H  0.49839168  0.82636526  0.34830392     0.14800
C1073       C  0.82540561  0.61447154  0.00648393    -0.14800
C1074       C  0.78855135  0.59789354  0.00322591    -0.30000
H1075       H  0.82811234  0.64665397  0.01372365     0.14200
H1076       H  0.78582913  0.56538902  0.99771380     0.14800
C1077       C  0.71259491  0.59851135  0.00366927    -0.14800
C1078       C  0.67730049  0.61257780  0.98915153    -0.30000
H1079       H  0.71322206  0.56928941  0.01857565     0.14200
H1080       H  0.67599218  0.64151076  0.97385648     0.14800
C1081       C  0.74812029  0.63087806  0.08018403    -0.14800
C1082       C  0.75051319  0.64935897  0.04396515    -0.30000
H1083       H  0.74381697  0.59826488  0.08116355     0.14200
H1084       H  0.75287063  0.68222800  0.04318438     0.14800
C1085       C  0.86664852  0.92452575  0.25312461    -0.14800
C1086       C  0.84810625  0.96102883  0.25170321    -0.30000
H1087       H  0.89936546  0.92280023  0.25207860     0.14200
H1088       H  0.81537750  0.96271577  0.25090923     0.14800
C1089       C  0.54084860  0.74798335  0.35549690    -0.14800
C1090       C  0.57639020  0.75437355  0.37449998    -0.30000
H1091       H  0.54060964  0.74165436  0.32285315     0.14200
H1092       H  0.57643525  0.76326337  0.40657001     0.14800
C1093       C  0.63242855  0.57824238  0.25564286    -0.14800
C1094       C  0.65093918  0.54176333  0.25278372    -0.30000
H1095       H  0.59988979  0.57995490  0.25933466     0.14200
H1096       H  0.68367380  0.54027089  0.25140606     0.14800
C1097       C  0.95963846  0.75518926  0.15222621    -0.14800
C1098       C  0.92369401  0.74880330  0.13410921    -0.30000
H1099       H  0.96048971  0.76062601  0.18501002     0.14200
H1100       H  0.92275904  0.74074874  0.10186003     0.14800
C1101       C  0.78687861  0.90396574  0.50849245    -0.14800
C1102       C  0.82369804  0.88733154  0.51349803    -0.30000
H1103       H  0.78390644  0.93646266  0.50397456     0.14200
H1104       H  0.82638672  0.85521256  0.52010477     0.14800
C1105       C  0.71053546  0.90156052  0.50539942    -0.14800
C1106       C  0.67523843  0.88310099  0.49764595    -0.30000
H1107       H  0.71100141  0.93422728  0.51068282     0.14200
H1108       H  0.67485644  0.85087836  0.49001120     0.14800
C1109       C  0.75240802  0.85092851  0.46796371    -0.14800
C1110       C  0.75518095  0.86893190  0.43153216    -0.30000
H1111       H  0.75050938  0.81805762  0.46934945     0.14200
H1112       H  0.75903692  0.90160800  0.43029593     0.14800
C1113       C  0.90011366  0.50345703  0.71239402    -0.14800
C1114       C  0.88386994  0.50349265  0.67489077    -0.30000
H1115       H  0.93274102  0.50477162  0.71517987     0.14200
H1116       H  0.85151188  0.50068962  0.67110351     0.14800
C1117       C  0.90108380  0.50227026  0.78850457    -0.14800
C1118       C  0.88539448  0.50569099  0.82633957    -0.30000
H1119       H  0.93318156  0.49612894  0.78492154     0.14200
H1120       H  0.85370577  0.51348980  0.83038767     0.14800
C1121       C  0.85237385  0.43301822  0.77066485    -0.14800
C1122       C  0.84638843  0.46658346  0.74844654    -0.30000
H1123       H  0.87541508  0.43226176  0.79396662     0.14200
H1124       H  0.82322910  0.46587335  0.72510808     0.14800
C1125       C  0.54025184  0.25034318  0.65010483    -0.14800
C1126       C  0.57545124  0.25129218  0.62937382    -0.30000
H1127       H  0.54051559  0.25070414  0.68325948     0.14200
H1128       H  0.57527035  0.25305708  0.59631856     0.14800
C1129       C  0.74905089  0.37531342  0.57717671    -0.14800
C1130       C  0.74817326  0.35499254  0.54096819    -0.30000
H1131       H  0.75358687  0.40793916  0.57762610     0.14200
H1132       H  0.74595766  0.32209590  0.54045377     0.14800
C1133       C  0.91870020  0.25506612  0.86782156    -0.14800
C1134       C  0.95410475  0.25214138  0.84751542    -0.30000
H1135       H  0.91850447  0.25399445  0.90091825     0.14200
H1136       H  0.95407350  0.25141988  0.81435854     0.14800
C1137       C  0.74863862  0.12611651  0.91437461    -0.14800
C1138       C  0.74934895  0.14425683  0.95152474    -0.30000
H1139       H  0.74386535  0.09358535  0.91186670     0.14200
H1140       H  0.75162579  0.17712745  0.95367015     0.14800
C1141       C  0.61321145  0.01159142  0.79165227    -0.14800
C1142       C  0.57865926  0.99479453  0.80304526    -0.30000
H1143       H  0.63234826  0.02433154  0.81546751     0.14200
H1144       H  0.55994627  0.97978767  0.78037148     0.14800
C1145       C  0.60384142  0.00011871  0.71374243    -0.14800
C1146       C  0.61899642  0.99148103  0.67638199    -0.30000
H1147       H  0.57211582  0.00793335  0.71721005     0.14200
H1148       H  0.65043121  0.98225390  0.67340826     0.14800
C1149       C  0.65974453  0.03954202  0.74328794    -0.14800
C1150       C  0.64289664  0.07515568  0.73219244    -0.30000
H1151       H  0.69145480  0.03805293  0.75141594     0.14200
H1152       H  0.61141860  0.07650860  0.72326023     0.14800
C1153       C  0.86896743  0.57928551  0.75100302    -0.14800
C1154       C  0.85001496  0.54335446  0.75278816    -0.30000
H1155       H  0.90134850  0.57989579  0.74596045     0.14200
H1156       H  0.81735396  0.54266253  0.75551481     0.14800
C1157       C  0.74344678  0.86922921  0.58228878    -0.14800
C1158       C  0.74895534  0.85134834  0.54538979    -0.30000
H1159       H  0.73646871  0.90150046  0.58427636     0.14200
H1160       H  0.75374608  0.81869333  0.54318986     0.14800
C1161       C  0.57463770  0.74671318  0.87151710    -0.14800
C1162       C  0.53954016  0.74660741  0.85082016    -0.30000
H1163       H  0.57426481  0.74223126  0.90427163     0.14200
H1164       H  0.53980605  0.74884462  0.81779066     0.14800
C1165       C  0.63629894  0.92806574  0.76063067    -0.14800
C1166       C  0.65591166  0.96295097  0.75288449    -0.30000
H1167       H  0.60431125  0.92844521  0.76707576     0.14200
H1168       H  0.68822274  0.96211417  0.74725622     0.14800
C1169       C  0.75486926  0.63400284  0.92912535    -0.14800
C1170       C  0.75174985  0.65123307  0.96660423    -0.30000
H1171       H  0.75937091  0.60137258  0.92610439     0.14200
H1172       H  0.74921971  0.68405588  0.96981832     0.14800
C1173       C  0.92137738  0.75487247  0.63462481    -0.14800
C1174       C  0.95731899  0.75097088  0.65311115    -0.30000
H1175       H  0.92024293  0.76088205  0.60217294     0.14200
H1176       H  0.95829328  0.74742377  0.68600037     0.14800
loop_ 
_geom_bond_atom_site_label_1 
_geom_bond_atom_site_label_2 
_geom_bond_distance 
_geom_bond_site_symmetry_2 
_ccdc_geom_bond_type 
O1           Mg3   2.140       .  S
O1           Mg9   2.130       .  S
O1           C36   1.238       .  S
C2           O15   1.237       .  S
C2           O39   1.272       .  A
C2           H41   1.081       .  S
Mg3          O32   2.127       .  S
Mg3          O47   2.338       .  S
Mg3          O43   2.266       .  S
Mg3          O14   2.312       .  S
O4          Mg46   2.134       .  S
O4          Mg29   2.145       .  S
O4           C25   1.237       .  S
O5           C36   1.273       .  A
O5          Mg29   2.307       .  S
C6            O8   1.267       .  A
C6           O20   1.275       .  A
C6         C1157   1.468       .  S
O7           C35   1.272       .  A
O7           Mg9   2.307       .  S
O8          Mg40   2.247       .  S
Mg9          O15   2.140       .  S
Mg9          O23   2.254       .  S
Mg9          O11   2.331       .  S
C10          O48   1.268       .  A
C10          O16   1.275       .  A
C10        C1173   1.468       .  S
O11          C18   1.276       .  A
H12          C25   1.081       .  S
C13          O27   1.238       .  S
C13          O28   1.273       .  A
C13          H38   1.081       .  S
O14          C37   1.274       .  A
O15         Mg29   2.130       .  S
O16         Mg46   2.327       .  S
C17          O30   1.269       .  A
C17          O22   1.274       .  A
C17        C1153   1.465       .  S
C18          O45   1.269       .  A
C18        C1169   1.466       .  S
Mg19         O26   2.137       .  S
Mg19         O27   2.131       .  S
Mg19         O20   2.329       .  S
Mg19         O21   2.311       .  S
Mg19         O48   2.249       .  S
O21          C25   1.272       .  A
O22         Mg29   2.322       .  S
O23          C42   1.270       .  A
O24          C44   1.271       .  A
O24         Mg40   2.302       .  S
O26         Mg40   2.126       .  S
O26          C37   1.239       .  S
O27         Mg46   2.139       .  S
O28         Mg40   2.307       .  S
Mg29         O45   2.250       .  S
O30         Mg46   2.249       .  S
H31          C36   1.081       .  S
O32         Mg40   2.140       .  S
O32          C35   1.238       .  S
H33          C35   1.081       .  S
H34          C37   1.081       .  S
O39         Mg46   2.308       .  S
C42          O47   1.277       .  A
C42        C1161   1.468       .  S
O43          C44   1.271       .  A
C44        C1165   1.465       .  S
C49        C1141   1.524       .  S
C49        C1145   1.536       .  S
C49        C1149   1.522       .  S
C49        C1166   1.531   1_545  S
O50         Mg52   2.130       .  S
O50         Mg58   2.129       .  S
O50          C85   1.238       .  S
C51          O64   1.239       .  S
C51          O88   1.274       .  A
C51          H90   1.081       .  S
Mg52         O81   2.133       .  S
Mg52         O96   2.328       .  S
Mg52         O92   2.254       .  S
Mg52         O63   2.307       .  S
O53         Mg95   2.125       .  S
O53         Mg78   2.134       .  S
O53          C74   1.237       .  S
O54          C85   1.272       .  A
O54         Mg78   2.305       .  S
C55          O57   1.267       .  A
C55          O69   1.278       .  A
C55        C1121   1.469       .  S
O56          C84   1.270       .  A
O56         Mg58   2.296       .  S
O57         Mg89   2.220       .  S
Mg58         O64   2.151       .  S
Mg58         O72   2.257       .  S
Mg58         O60   2.298       .  S
C59          O97   1.273       .  A
C59          O65   1.277       .  A
C59        C1129   1.473       .  S
O60          C67   1.270       .  A
H61          C74   1.081       .  S
C62          O76   1.239       .  S
C62          O77   1.273       .  A
C62          H87   1.081       .  S
O63          C86   1.272       .  A
O64         Mg78   2.129       .  S
O65         Mg95   2.335       .  S
C66          O79   1.270       .  A
C66          O71   1.273       .  A
C66        C1126   1.466       .  S
C67          O94   1.268       .  A
C67        C1150   1.457       .  S
Mg68         O75   2.151       .  S
Mg68         O76   2.136       .  S
Mg68         O69   2.338       .  S
Mg68         O70   2.307       .  S
Mg68         O97   2.272       .  S
O70          C74   1.272       .  A
O71         Mg78   2.316       .  S
O72          C91   1.269       .  A
O73          C93   1.276       .  A
O73         Mg89   2.336       .  S
O75         Mg89   2.135       .  S
O75          C86   1.237       .  S
O76         Mg95   2.143       .  S
O77         Mg89   2.309       .  S
Mg78         O94   2.241       .  S
O79         Mg95   2.263       .  S
H80          C85   1.081       .  S
O81         Mg89   2.124       .  S
O81          C84   1.237       .  S
H82          C84   1.081       .  S
H83          C86   1.081       .  S
O88         Mg95   2.316       .  S
C91          O96   1.276       .  A
C91        C1137   1.470       .  S
O92          C93   1.270       .  A
C93        C1133   1.471       .  S
C98        C1113   1.524       .  S
C98        C1117   1.528       .  S
C98        C1122   1.539       .  S
C98        C1154   1.526       .  S
C99        C1101   1.529       .  S
C99        C1105   1.527       .  S
C99        C1109   1.527       .  S
C99        C1158   1.529       .  S
O100       Mg102   2.136       .  S
O100       Mg108   2.132       .  S
O100        C135   1.237       .  S
C101        O114   1.238       .  S
C101        O138   1.273       .  A
C101        H140   1.081       .  S
Mg102       O131   2.133       .  S
Mg102       O146   2.326       .  S
Mg102       O142   2.247       .  S
Mg102       O113   2.309       .  S
O103       Mg145   2.129       .  S
O103       Mg128   2.143       .  S
O103        C124   1.237       .  S
O104        C135   1.272       .  A
O104       Mg128   2.304       .  S
C105        O107   1.268       .  A
C105        O119   1.276       .  A
C105       C1110   1.463       .  S
O106        C134   1.271       .  A
O106       Mg108   2.303       .  S
O107       Mg139   2.242       .  S
Mg108       O114   2.156       .  S
Mg108       O122   2.276       .  S
Mg108       O110   2.321       .  S
C109        O147   1.272       .  A
C109        O115   1.274       .  A
C109       C1090   1.474       .  S
O110        C117   1.275       .  A
H111        C124   1.081       .  S
C112        O126   1.238       .  S
C112        O127   1.273       .  A
C112        H137   1.081       .  S
O113        C136   1.273       .  A
O114       Mg128   2.137       .  S
O115       Mg145   2.326       .  S
C116        O129   1.268       .  A
C116        O121   1.274       .  A
C116       C1093   1.466       .  S
C117        O144   1.269       .  A
C117       C1081   1.464       .  S
Mg118       O125   2.151       .  S
Mg118       O126   2.129       .  S
Mg118       O119   2.328       .  S
Mg118       O120   2.311       .  S
Mg118       O147   2.275       .  S
O120        C124   1.273       .  A
O121       Mg128   2.321       .  S
O122        C141   1.272       .  A
O123        C143   1.276       .  A
O123       Mg139   2.330       .  S
O125       Mg139   2.135       .  S
O125        C136   1.238       .  S
O126       Mg145   2.143       .  S
O127       Mg139   2.312       .  S
Mg128       O144   2.247       .  S
O129       Mg145   2.251       .  S
H130        C135   1.081       .  S
O131       Mg139   2.135       .  S
O131        C134   1.237       .  S
H132        C134   1.081       .  S
H133        C136   1.081       .  S
O138       Mg145   2.313       .  S
C141        O146   1.275       .  A
C141       C1098   1.475       .  S
O142        C143   1.268       .  A
C143       C1085   1.466       .  S
C148       C1074   1.524       .  S
C148       C1077   1.532       .  S
C148       C1082   1.525       .  S
C148       C1170   1.532   1_554  S
C149       C1061   1.532       .  S
C149       C1066   1.531       .  S
C149       C1069   1.527       .  S
C149       C1089   1.534       .  S
C150       C1045   1.528       .  S
C150       C1049   1.530   1_565  S
C150       C1053   1.533       .  S
C150       C1057   1.540   1_565  S
C151       C1034   1.535   1_556  S
C151       C1037   1.535       .  S
C151       C1042   1.531       .  S
C151       C1138   1.531       .  S
C152       C1017   1.525       .  S
C152       C1021   1.529       .  S
C152       C1025   1.531       .  S
C152       C1029   1.535       .  S
C153       C1006   1.532       .  S
C153       C1010   1.527       .  S
C153       C1014   1.526       .  S
C153       C1130   1.533       .  S
C154        C993   1.530       .  S
C154        C997   1.530       .  S
C154       C1001   1.527       .  S
C154       C1094   1.528       .  S
C155        C977   1.520       .  S
C155        C981   1.524       .  S
C155        C985   1.524       .  S
C155        C989   1.526       .  S
C156        C965   1.530   1_655  S
C156        C969   1.525       .  S
C156        C973   1.527   1_655  S
C156       C1097   1.534       .  S
O157       Mg159   2.142       .  S
O157       Mg165   2.165       .  S
O157        C192   1.237       .  S
C158        O171   1.236       .  S
C158        O195   1.270       .  A
C158        H197   1.081       .  S
Mg159       O188   2.163       .  S
Mg159       O203   2.310       .  S
Mg159       O199   2.283       .  S
Mg159       O170   2.289       .  S
O160       Mg202   2.166       .  S
O160       Mg185   2.149       .  S
O160        C181   1.238       .  S
O161        C192   1.270       .  A
O161       Mg185   2.294       .  S
C162        O164   1.274       .  A
C162        O176   1.278       .  A
C162        C962   1.479       .  S
O163        C191   1.269       .  A
O163       Mg165   2.290       .  S
O164       Mg196   2.280       .  S
Mg165       O171   2.135       .  S
Mg165       O179   2.279       .  S
Mg165       O167   2.317       .  S
C166        O204   1.274       .  A
C166        O172   1.275       .  A
C166        C966   1.474       .  S
O167        C174   1.278       .  A
H168        C181   1.081       .  S
C169        O183   1.236       .  S
C169        O184   1.268       .  A
C169        H194   1.081       .  S
O170        C193   1.270       .  A
O171       Mg185   2.162       .  S
O172       Mg202   2.303       .  S
C173        O186   1.272       .  A
C173        O178   1.277       .  A
C173        C953   1.472       .  S
C174        O201   1.276       .  A
C174        C958   1.479       .  S
Mg175       O182   2.129       .  S
Mg175       O183   2.158       .  S
Mg175       O176   2.322       .  S
Mg175       O177   2.299       .  S
Mg175       O204   2.278       .  S
O177        C181   1.271       .  A
O178       Mg185   2.314       .  S
O179        C198   1.275       .  A
O180        C200   1.273       .  A
O180       Mg196   2.284       .  S
O182       Mg196   2.166       .  S
O182        C193   1.238       .  S
O183       Mg202   2.126       .  S
O184       Mg196   2.283       .  S
Mg185       O201   2.287       .  S
O186       Mg202   2.259       .  S
H187        C192   1.081       .  S
O188       Mg196   2.138       .  S
O188        C191   1.236       .  S
H189        C191   1.081       .  S
H190        C193   1.081       .  S
O195       Mg202   2.291       .  S
C198        O203   1.277       .  A
C198       C1062   1.473       .  S
O199        C200   1.275       .  A
C200        C990   1.470       .  S
C205        C941   1.528   1_554  S
C205        C945   1.523       .  S
C205        C950   1.526   1_554  S
C205        C954   1.528       .  S
C206        C929   1.527       .  S
C206        C933   1.526       .  S
C206        C937   1.531       .  S
C206       C1125   1.530       .  S
O207       Mg209   2.126       .  S
O207       Mg215   2.161       .  S
O207        C242   1.237       .  S
C208        O221   1.240       .  S
C208        O245   1.273       .  A
C208        H247   1.081       .  S
Mg209       O238   2.148       .  S
Mg209       O253   2.274       .  S
Mg209       O249   2.281       .  S
Mg209       O220   2.291       .  S
O210       Mg252   2.149       .  S
O210       Mg235   2.113       .  S
O210        C231   1.238       .  S
O211        C242   1.269       .  A
O211       Mg235   2.289       .  S
C212        O214   1.266       .  A
C212        O226   1.285       .  A
C212        C925   1.472       .  S
O213        C241   1.269       .  A
O213       Mg215   2.286       .  S
O214       Mg246   2.202       .  S
Mg215       O221   2.147       .  S
Mg215       O229   2.302       .  S
Mg215       O217   2.351       .  S
C216        O254   1.279       .  A
C216        O222   1.274       .  A
C216       C1050   1.472       .  S
O217        C224   1.284       .  A
H218        C231   1.081       .  S
C219        O233   1.237       .  S
C219        O234   1.270       .  A
C219        H244   1.081       .  S
O220        C243   1.271       .  A
O221       Mg235   2.151       .  S
O222       Mg252   2.294       .  S
C223        O236   1.274       .  A
C223        O228   1.272       .  A
C223        C917   1.475       .  S
C224        O251   1.268       .  A
C224        C921   1.474       .  S
Mg225       O232   2.138       .  S
Mg225       O233   2.160       .  S
Mg225       O226   2.365       .  S
Mg225       O227   2.293       .  S
Mg225       O254   2.297       .  S
O227        C231   1.270       .  A
O228       Mg235   2.291       .  S
O229        C248   1.279       .  A
O230        C250   1.273       .  A
O230       Mg246   2.295       .  S
O232       Mg246   2.149       .  S
O232        C243   1.239       .  S
O233       Mg252   2.131       .  S
O234       Mg246   2.291       .  S
Mg235       O251   2.221       .  S
O236       Mg252   2.291       .  S
H237        C242   1.081       .  S
O238       Mg246   2.101       .  S
O238        C241   1.237       .  S
H239        C241   1.081       .  S
H240        C243   1.081       .  S
O245       Mg252   2.298       .  S
C248        O253   1.271       .  A
C248       C1022   1.470       .  S
O249        C250   1.272       .  A
C250        C938   1.476       .  S
C255        C909   1.534       .  S
C255        C914   1.533       .  S
C255        C918   1.532   1_655  S
C255       C1134   1.531       .  S
O256       Mg258   2.149       .  S
O256       Mg264   2.168       .  S
O256        C291   1.237       .  S
C257        O270   1.236       .  S
C257        O294   1.269       .  A
C257        H296   1.081       .  S
Mg258       O287   2.158       .  S
Mg258       O302   2.292       .  S
Mg258       O298   2.285       .  S
Mg258       O269   2.291       .  S
O259       Mg301   2.169       .  S
O259       Mg284   2.141       .  S
O259        C280   1.238       .  S
O260        C291   1.270       .  A
O260       Mg284   2.295       .  S
C261        O263   1.275       .  A
C261        O275   1.278       .  A
C261       C1005   1.476       .  S
O262        C290   1.270       .  A
O262       Mg264   2.290       .  S
O263       Mg295   2.281       .  S
Mg264       O270   2.126       .  S
Mg264       O278   2.270       .  S
Mg264       O266   2.329       .  S
C265        O303   1.274       .  A
C265        O271   1.275       .  A
C265       C1002   1.473       .  S
O266        C273   1.279       .  A
H267        C280   1.081       .  S
C268        O282   1.236       .  S
C268        O283   1.269       .  A
C268        H293   1.081       .  S
O269        C292   1.271       .  A
O270       Mg284   2.155       .  S
O271       Mg301   2.304       .  S
C272        O285   1.274       .  A
C272        O277   1.276       .  A
C272        C905   1.474       .  S
C273        O300   1.275       .  A
C273       C1033   1.480       .  S
Mg274       O281   2.134       .  S
Mg274       O282   2.158       .  S
Mg274       O275   2.317       .  S
Mg274       O276   2.297       .  S
Mg274       O303   2.274       .  S
O276        C280   1.272       .  A
O277       Mg284   2.307       .  S
O278        C297   1.275       .  A
O279        C299   1.277       .  A
O279       Mg295   2.316       .  S
O281       Mg295   2.164       .  S
O281        C292   1.238       .  S
O282       Mg301   2.138       .  S
O283       Mg295   2.290       .  S
Mg284       O300   2.282       .  S
O285       Mg301   2.280       .  S
H286        C291   1.081       .  S
O287       Mg295   2.128       .  S
O287        C290   1.237       .  S
H288        C290   1.081       .  S
H289        C292   1.081       .  S
O294       Mg301   2.287       .  S
C297        O302   1.274       .  A
C297        C898   1.468       .  S
O298        C299   1.274       .  A
C299        C901   1.477       .  S
C304        C890   1.534       .  S
C304        C893   1.533   1_565  S
C304        C897   1.524   1_565  S
C304       C1086   1.528       .  S
C305        C877   1.531       .  S
C305        C882   1.536       .  S
C305        C885   1.533       .  S
C305        C902   1.534   1_455  S
O306       Mg308   2.153       .  S
O306       Mg314   2.129       .  S
O306        C341   1.239       .  S
C307        O320   1.237       .  S
C307        O344   1.273       .  A
C307        H346   1.081       .  S
Mg308       O337   2.133       .  S
Mg308       O352   2.341       .  S
Mg308       O348   2.268       .  S
Mg308       O319   2.309       .  S
O309       Mg351   2.138       .  S
O309       Mg334   2.152       .  S
O309        C330   1.238       .  S
O310        C341   1.275       .  A
O310       Mg334   2.317       .  S
C311        O313   1.270       .  A
C311        O325   1.274       .  A
C311        C869   1.468       .  S
O312        C340   1.273       .  A
O312       Mg314   2.309       .  S
O313       Mg345   2.262       .  S
Mg314       O320   2.151       .  S
Mg314       O328   2.254       .  S
Mg314       O316   2.325       .  S
C315        O353   1.270       .  A
C315        O321   1.279       .  A
C315        C862   1.479       .  S
O316        C323   1.274       .  A
H317        C330   1.081       .  S
C318        O332   1.239       .  S
C318        O333   1.274       .  A
C318        H343   1.081       .  S
O319        C342   1.272       .  A
O320       Mg334   2.131       .  S
O321       Mg351   2.359       .  S
C322        O335   1.272       .  A
C322        O327   1.279       .  A
C322        C886   1.475       .  S
C323        O350   1.272       .  A
C323        C857   1.472       .  S
Mg324       O331   2.149       .  S
Mg324       O332   2.131       .  S
Mg324       O325   2.319       .  S
Mg324       O326   2.307       .  S
Mg324       O353   2.256       .  S
O326        C330   1.273       .  A
O327       Mg334   2.350       .  S
O328        C347   1.269       .  A
O329        C349   1.276       .  A
O329       Mg345   2.335       .  S
O331       Mg345   2.134       .  S
O331        C342   1.237       .  S
O332       Mg351   2.150       .  S
O333       Mg345   2.313       .  S
Mg334       O350   2.275       .  S
O335       Mg351   2.263       .  S
H336        C341   1.081       .  S
O337       Mg345   2.147       .  S
O337        C340   1.238       .  S
H338        C340   1.081       .  S
H339        C342   1.081       .  S
O344       Mg351   2.311       .  S
C347        O352   1.276       .  A
C347        C873   1.471       .  S
O348        C349   1.272       .  A
C349        C865   1.474       .  S
C354        C849   1.529       .  S
C354        C853   1.523   1_556  S
C354        C874   1.537   1_556  S
C354        C922   1.527       .  S
C355        C841   1.526       .  S
C355        C846   1.524       .  S
C355        C870   1.532       .  S
C355        C957   1.533   1_545  S
O356       Mg358   2.147       .  S
O356       Mg364   2.139   1_545  S
O356        C391   1.237       .  S
C357        O370   1.238       .  S
C357        O394   1.273   1_655  A
C357        H396   1.081       .  S
Mg358       O387   2.126   1_655  S
Mg358       O402   2.323       .  S
Mg358       O398   2.277       .  S
Mg358       O369   2.309       .  S
O359       Mg401   2.131   1_655  S
O359       Mg384   2.142       .  S
O359        C380   1.238   1_565  S
O360        C391   1.272   1_565  A
O360       Mg384   2.304       .  S
C361        O363   1.266       .  A
C361        O375   1.278       .  A
C361        C837   1.467       .  S
O362        C390   1.271   1_655  A
O362       Mg364   2.297       .  S
O363       Mg395   2.218       .  S
Mg364       O370   2.159       .  S
Mg364       O378   2.279       .  S
Mg364       O366   2.337       .  S
C365        O403   1.272   1_565  A
C365        O371   1.273       .  A
C365       C1054   1.470       .  S
O366        C373   1.278       .  A
H367        C380   1.081       .  S
C368        O382   1.238       .  S
C368        O383   1.273       .  A
C368        H393   1.081       .  S
O369        C392   1.274   1_655  A
O370       Mg384   2.137       .  S
O371       Mg401   2.313       .  S
C372        O385   1.267       .  A
C372        O377   1.274   1_455  A
C372        C833   1.467   1_455  S
C373        O400   1.269       .  A
C373       C1102   1.467       .  S
Mg374       O381   2.150       .  S
Mg374       O382   2.132   1_545  S
Mg374       O375   2.342       .  S
Mg374       O376   2.315       .  S
Mg374       O403   2.274       .  S
O376        C380   1.273   1_455  A
O377       Mg384   2.326       .  S
O378        C397   1.274   1_565  A
O379        C399   1.275       .  A
O379       Mg395   2.335       .  S
O381       Mg395   2.135       .  S
O381        C392   1.239       .  S
O382       Mg401   2.145       .  S
O383       Mg395   2.311   1_565  S
Mg384       O400   2.244       .  S
O385       Mg401   2.251       .  S
H386        C391   1.081       .  S
O387       Mg395   2.118       .  S
O387        C390   1.237   1_545  S
H388        C390   1.081       .  S
H389        C392   1.081       .  S
O394       Mg401   2.312       .  S
C397        O402   1.276       .  A
C397        C894   1.473       .  S
O398        C399   1.272   1_655  A
C399        C881   1.477       .  S
O404       Mg406   2.138   1_545  S
O404       Mg412   2.164       .  S
O404        C439   1.237       .  S
C405        O418   1.238       .  S
C405        O442   1.271       .  A
C405        H444   1.081       .  S
Mg406       O435   2.167       .  S
Mg406       O450   2.340       .  S
Mg406       O446   2.286       .  S
Mg406       O417   2.294   1_556  S
O407       Mg449   2.160       .  S
O407       Mg432   2.132   1_554  S
O407        C428   1.236       .  S
O408        C439   1.271       .  A
O408       Mg432   2.294   1_455  S
C409        O411   1.276       .  A
C409        O423   1.271   1_455  A
C409        C974   1.474       .  S
O410        C438   1.270       .  A
O410       Mg412   2.299   1_565  S
O411       Mg443   2.294       .  S
Mg412       O418   2.146   1_455  S
Mg412       O426   2.288       .  S
Mg412       O414   2.318       .  S
C413        O451   1.272       .  A
C413        O419   1.280   1_565  A
C413        C889   1.475       .  S
O414        C421   1.277   1_455  A
H415        C428   1.081       .  S
C416        O430   1.237       .  S
C416        O431   1.269       .  A
C416        H441   1.081       .  S
O417        C440   1.270       .  A
O418       Mg432   2.166       .  S
O419       Mg449   2.327       .  S
C420        O433   1.275       .  A
C420        O425   1.275   1_554  A
C420       C1041   1.475   1_554  S
C421        O448   1.272       .  A
C421        C913   1.476       .  S
Mg422       O429   2.137   1_655  S
Mg422       O430   2.163       .  S
Mg422       O423   2.283       .  S
Mg422       O424   2.284   1_565  S
Mg422       O451   2.266       .  S
O424        C428   1.268       .  A
O425       Mg432   2.304       .  S
O426        C445   1.275       .  A
O427        C447   1.275   1_554  A
O427       Mg443   2.295       .  S
O429       Mg443   2.164       .  S
O429        C440   1.237       .  S
O430       Mg449   2.123   1_565  S
O431       Mg443   2.283   1_655  S
Mg432       O448   2.268       .  S
O433       Mg449   2.282       .  S
H434        C439   1.081       .  S
O435       Mg443   2.155   1_556  S
O435        C438   1.236       .  S
H436        C438   1.081       .  S
H437        C440   1.081       .  S
O442       Mg449   2.297   1_556  S
C445        O450   1.281   1_545  A
C445       C1058   1.483       .  S
O446        C447   1.277       .  A
C447        C949   1.471       .  S
O452       Mg454   2.139       .  S
O452       Mg460   2.136       .  S
O452        C487   1.238   1_565  S
C453        O466   1.238       .  S
C453        O490   1.273   1_565  A
C453        H492   1.081       .  S
Mg454       O483   2.125       .  S
Mg454       O498   2.317       .  S
Mg454       O494   2.256       .  S
Mg454       O465   2.312       .  S
O455       Mg497   2.129       .  S
O455       Mg480   2.139       .  S
O455        C476   1.238       .  S
O456        C487   1.273       .  A
O456       Mg480   2.309       .  S
C457        O459   1.267       .  A
C457        O471   1.277   1_565  A
C457       C1146   1.466       .  S
O458        C486   1.271       .  A
O458       Mg460   2.304       .  S
O459       Mg491   2.232       .  S
Mg460       O466   2.135       .  S
Mg460       O474   2.250       .  S
Mg460       O462   2.321       .  S
C461        O499   1.270       .  A
C461        O467   1.275       .  A
C461        C934   1.466       .  S
O462        C469   1.275   1_565  A
H463        C476   1.081       .  S
C464        O478   1.237   1_565  S
C464        O479   1.272       .  A
C464        H489   1.081       .  S
O465        C488   1.274   1_565  A
O466       Mg480   2.125   1_565  S
O467       Mg497   2.321       .  S
C468        O481   1.270       .  A
C468        O473   1.272       .  A
C468        C829   1.467       .  S
C469        O496   1.267       .  A
C469        C845   1.464       .  S
Mg470       O477   2.142       .  S
Mg470       O478   2.129       .  S
Mg470       O471   2.342       .  S
Mg470       O472   2.311       .  S
Mg470       O499   2.257       .  S
O472        C476   1.273       .  A
O473       Mg480   2.309       .  S
O474        C493   1.269       .  A
O475        C495   1.272       .  A
O475       Mg491   2.307       .  S
O477       Mg491   2.130   1_545  S
O477        C488   1.239       .  S
O478       Mg497   2.140       .  S
O479       Mg491   2.304       .  S
Mg480       O496   2.242       .  S
O481       Mg497   2.263       .  S
H482        C487   1.081       .  S
O483       Mg491   2.131       .  S
O483        C486   1.236       .  S
H484        C486   1.081       .  S
H485        C488   1.081       .  S
O490       Mg497   2.308       .  S
C493        O498   1.274       .  A
C493       C1070   1.463       .  S
O494        C495   1.269       .  A
C495       C1106   1.464       .  S
C500        C830   1.529       .  S
C500        C838   1.527       .  S
C500        C861   1.546       .  S
C500        C926   1.527       .  S
O501       Mg503   2.132   1_556  S
O501       Mg509   2.152       .  S
O501        C536   1.238       .  S
C502        O515   1.241       .  S
C502        O539   1.274       .  A
C502        H541   1.081       .  S
Mg503       O532   2.163       .  S
Mg503       O547   2.310   1_554  S
Mg503       O543   2.279       .  S
Mg503       O514   2.293       .  S
O504       Mg546   2.203       .  S
O504       Mg529   2.145       .  S
O504        C525   1.261       .  A
O505        C536   1.271       .  A
O505       Mg529   2.291   1_545  S
C506        O508   1.276       .  A
C506        O520   1.270   1_545  A
C506        C842   1.467       .  S
O507        C535   1.274       .  A
O507       Mg509   2.307   1_554  S
O508       Mg540   2.289       .  S
Mg509       O515   2.141   1_545  S
Mg509       O523   2.302       .  S
Mg509       O511   2.367       .  S
C510        O548   1.274       .  A
C510        O516   1.274   1_554  A
C510        C946   1.466       .  S
O511        C518   1.285   1_545  A
H512        C525   1.080       .  S
C513        O527   1.236       .  S
C513        O528   1.269       .  A
C513        H538   1.081       .  S
O514        C537   1.270       .  A
O515       Mg529   2.149       .  S
O516       Mg546   2.290       .  S
C517        O530   1.273       .  A
C517        O522   1.274       .  A
C517        C821   1.467       .  S
C518        O545   1.264       .  A
C518       C1142   1.469       .  S
Mg519       O526   2.140   1_565  S
Mg519       O527   2.179       .  S
Mg519       O520   2.266       .  S
Mg519       O521   2.281   1_554  S
Mg519       O548   2.265       .  S
O521        C525   1.264       .  A
O522       Mg529   2.294       .  S
O523        C542   1.278       .  A
O524        C544   1.276       .  A
O524       Mg540   2.310       .  S
O526       Mg540   2.167       .  S
O526        C537   1.237       .  S
O527       Mg546   2.115   1_554  S
O528       Mg540   2.284   1_565  S
Mg529       O545   2.186       .  S
O530       Mg546   2.266       .  S
H531        C536   1.081       .  S
O532       Mg540   2.149       .  S
O532        C535   1.239       .  S
H533        C535   1.081       .  S
H534        C537   1.081       .  S
O539       Mg546   2.299       .  S
C542        O547   1.276       .  A
C542       C1038   1.480       .  S
O543        C544   1.274       .  A
C544        C825   1.476       .  S
C549        C817   1.531       .  S
C549        C826   1.531       .  S
C549        C866   1.532       .  S
C549        C906   1.532       .  S
O550       Mg552   2.148       .  S
O550       Mg558   2.135   1_554  S
O550        C585   1.237       .  S
C551        O564   1.237       .  S
C551        O588   1.271       .  A
C551        H590   1.081       .  S
Mg552       O581   2.134       .  S
Mg552       O596   2.330       .  S
Mg552       O592   2.267       .  S
Mg552       O563   2.306       .  S
O553       Mg595   2.129       .  S
O553       Mg578   2.137       .  S
O553        C574   1.238   1_556  S
O554        C585   1.272   1_556  A
O554       Mg578   2.307       .  S
C555        O557   1.271       .  A
C555        O569   1.273       .  A
C555        C818   1.468       .  S
O556        C584   1.272       .  A
O556       Mg558   2.305       .  S
O557       Mg589   2.266       .  S
Mg558       O564   2.136       .  S
Mg558       O572   2.240       .  S
Mg558       O560   2.316       .  S
C559        O597   1.267       .  A
C559        O565   1.272   1_554  A
C559        C854   1.460       .  S
O560        C567   1.274       .  A
H561        C574   1.081       .  S
C562        O576   1.238       .  S
C562        O577   1.273   1_556  A
C562        H587   1.081       .  S
O563        C586   1.272       .  A
O564       Mg578   2.135       .  S
O565       Mg595   2.307       .  S
C566        O579   1.269       .  A
C566        O571   1.274       .  A
C566       C1026   1.467       .  S
C567        O594   1.268       .  A
C567        C814   1.462       .  S
Mg568       O575   2.136       .  S
Mg568       O576   2.128   1_554  S
Mg568       O569   2.316       .  S
Mg568       O570   2.311       .  S
Mg568       O597   2.243       .  S
O570        C574   1.273       .  A
O571       Mg578   2.321       .  S
O572        C591   1.268       .  A
O573        C593   1.276       .  A
O573       Mg589   2.326       .  S
O575       Mg589   2.130       .  S
O575        C586   1.237       .  S
O576       Mg595   2.144       .  S
O577       Mg589   2.311       .  S
Mg578       O594   2.246       .  S
O579       Mg595   2.253       .  S
H580        C585   1.081       .  S
O581       Mg589   2.141       .  S
O581        C584   1.238   1_554  S
H582        C584   1.081   1_554  S
H583        C586   1.081       .  S
O588       Mg595   2.304       .  S
C591        O596   1.277   1_556  A
C591       C1078   1.468       .  S
O592        C593   1.272       .  A
C593        C994   1.471       .  S
O598       Mg600   2.124       .  S
O598       Mg606   2.158       .  S
O598        C633   1.235       .  S
C599        O612   1.236       .  S
C599        O636   1.269       .  A
C599        H638   1.081       .  S
Mg600       O629   2.163       .  S
Mg600       O644   2.290       .  S
Mg600       O640   2.252       .  S
Mg600       O611   2.285       .  S
O601       Mg643   2.164       .  S
O601       Mg626   2.138       .  S
O601        C622   1.237       .  S
O602        C633   1.268       .  A
O602       Mg626   2.286   1_655  S
C603        O605   1.275       .  A
C603        O617   1.278   1_655  A
C603        C878   1.475   1_655  S
O604        C632   1.269       .  A
O604       Mg606   2.287       .  S
O605       Mg637   2.273       .  S
Mg606       O612   2.128   1_655  S
Mg606       O620   2.260       .  S
Mg606       O608   2.295       .  S
C607        O645   1.274       .  A
C607        O613   1.272       .  A
C607        C809   1.468       .  S
O608        C615   1.274   1_655  A
H609        C622   1.081       .  S
C610        O624   1.236       .  S
C610        O625   1.269       .  A
C610        H635   1.081       .  S
O611        C634   1.269       .  A
O612       Mg626   2.164       .  S
O613       Mg643   2.283       .  S
C614        O627   1.271       .  A
C614        O619   1.275       .  A
C614        C986   1.468       .  S
C615        O642   1.275       .  A
C615        C805   1.470   1_455  S
Mg616       O623   2.129   1_455  S
Mg616       O624   2.158       .  S
Mg616       O617   2.316       .  S
Mg616       O618   2.296       .  S
Mg616       O645   2.277       .  S
O618        C622   1.271       .  A
O619       Mg626   2.301       .  S
O620        C639   1.273       .  A
O621        C641   1.276       .  A
O621       Mg637   2.309       .  S
O623       Mg637   2.162       .  S
O623        C634   1.236       .  S
O624       Mg643   2.129       .  S
O625       Mg637   2.291   1_455  S
Mg626       O642   2.271       .  S
O627       Mg643   2.253       .  S
H628        C633   1.081       .  S
O629       Mg637   2.132       .  S
O629        C632   1.237       .  S
H630        C632   1.081       .  S
H631        C634   1.081       .  S
O636       Mg643   2.286       .  S
C639        O644   1.273       .  A
C639       C1114   1.467       .  S
O640        C641   1.272       .  A
C641       C1013   1.469       .  S
O646       Mg648   2.137   1_554  S
O646       Mg654   2.161       .  S
O646        C681   1.236       .  S
C647        O660   1.236       .  S
C647        O684   1.268       .  A
C647        H686   1.081       .  S
Mg648       O677   2.156       .  S
Mg648       O692   2.310       .  S
Mg648       O688   2.288       .  S
Mg648       O659   2.291   1_455  S
O649       Mg691   2.158       .  S
O649       Mg674   2.122   1_655  S
O649        C670   1.236       .  S
O650        C681   1.269       .  A
O650       Mg674   2.288       .  S
C651        O653   1.274       .  A
C651        O665   1.272       .  A
C651       C1118   1.467       .  S
O652        C680   1.270       .  A
O652       Mg654   2.290   1_556  S
O653       Mg685   2.262       .  S
Mg654       O660   2.128       .  S
Mg654       O668   2.249       .  S
Mg654       O656   2.307       .  S
C655        O693   1.272       .  A
C655        O661   1.274   1_556  A
C655       C1073   1.469   1_556  S
O656        C663   1.275       .  A
H657        C670   1.081       .  S
C658        O672   1.238       .  S
C658        O673   1.271       .  A
C658        H683   1.081       .  S
O659        C682   1.269       .  A
O660       Mg674   2.158       .  S
O661       Mg691   2.298       .  S
C662        O675   1.273       .  A
C662        O667   1.274   1_655  A
C662        C970   1.468   1_655  S
C663        O690   1.272       .  A
C663        C801   1.471       .  S
Mg664       O671   2.132       .  S
Mg664       O672   2.160       .  S
Mg664       O665   2.286       .  S
Mg664       O666   2.287   1_556  S
Mg664       O693   2.257       .  S
O666        C670   1.269       .  A
O667       Mg674   2.298       .  S
O668        C687   1.272   1_554  A
O669        C689   1.278   1_655  A
O669       Mg685   2.320       .  S
O671       Mg685   2.156       .  S
O671        C682   1.236       .  S
O672       Mg691   2.129   1_556  S
O673       Mg685   2.294       .  S
Mg674       O690   2.249       .  S
O675       Mg691   2.258       .  S
H676        C681   1.081       .  S
O677       Mg685   2.124   1_455  S
O677        C680   1.237       .  S
H678        C680   1.081       .  S
H679        C682   1.081       .  S
O684       Mg691   2.288   1_455  S
C687        O692   1.277       .  A
C687        C850   1.468       .  S
O688        C689   1.276       .  A
C689        C910   1.480   1_455  S
C694        C802   1.522       .  S
C694        C810   1.526       .  S
C694        C858   1.533       .  S
C694        C961   1.534       .  S
O695       Mg697   2.125       .  S
O695       Mg703   2.160       .  S
O695        C730   1.237       .  S
C696        O709   1.237       .  S
C696        O733   1.270       .  A
C696        H735   1.081       .  S
Mg697       O726   2.161       .  S
Mg697       O741   2.302       .  S
Mg697       O737   2.261       .  S
Mg697       O708   2.292       .  S
O698       Mg740   2.167       .  S
O698       Mg723   2.148       .  S
O698        C719   1.236       .  S
O699        C730   1.269       .  A
O699       Mg723   2.286       .  S
C700        O702   1.274       .  A
C700        O714   1.272       .  A
C700        C930   1.467       .  S
O701        C729   1.269       .  A
O701       Mg703   2.289       .  S
O702       Mg734   2.277       .  S
Mg703       O709   2.132       .  S
Mg703       O717   2.278       .  S
Mg703       O705   2.297       .  S
C704        O742   1.273       .  A
C704        O710   1.280       .  A
C704       C1030   1.481       .  S
O705        C712   1.275       .  A
H706        C719   1.081       .  S
C707        O721   1.237       .  S
C707        O722   1.270       .  A
C707        H732   1.081       .  S
O708        C731   1.270       .  A
O709       Mg723   2.163       .  S
O710       Mg740   2.336       .  S
C711        O724   1.275       .  A
C711        O716   1.275       .  A
C711        C982   1.467       .  S
C712        O739   1.276       .  A
C712       C1065   1.477       .  S
Mg713       O720   2.137       .  S
Mg713       O721   2.160       .  S
Mg713       O714   2.280       .  S
Mg713       O715   2.290       .  S
Mg713       O742   2.271       .  S
O715        C719   1.269       .  A
O716       Mg723   2.296       .  S
O717        C736   1.274       .  A
O718        C738   1.277       .  A
O718       Mg734   2.312       .  S
O720       Mg734   2.168       .  S
O720        C731   1.237       .  S
O721       Mg740   2.130       .  S
O722       Mg734   2.291       .  S
Mg723       O739   2.299       .  S
O724       Mg740   2.268       .  S
H725        C730   1.081       .  S
O726       Mg734   2.132       .  S
O726        C729   1.237       .  S
H727        C729   1.081       .  S
H728        C731   1.081       .  S
O733       Mg740   2.292       .  S
C736        O741   1.275       .  A
C736        C998   1.473       .  S
O737        C738   1.273       .  A
C738       C1009   1.472       .  S
C743        C797   1.528   1_655  S
C743        C806   1.525       .  S
C743        C834   1.529       .  S
C743       C1174   1.527       .  S
O744       Mg746   2.131       .  S
O744       Mg752   2.161       .  S
O744        C779   1.236       .  S
C745        O758   1.237       .  S
C745        O782   1.269       .  A
C745        H784   1.081       .  S
Mg746       O775   2.165       .  S
Mg746       O790   2.303       .  S
Mg746       O786   2.280       .  S
Mg746       O757   2.288       .  S
O747       Mg789   2.161       .  S
O747       Mg772   2.124       .  S
O747        C768   1.235       .  S
O748        C779   1.269       .  A
O748       Mg772   2.285       .  S
C749        O751   1.273       .  A
C749        O763   1.274       .  A
C749        C798   1.470       .  S
O750        C778   1.269       .  A
O750       Mg752   2.289       .  S
O751       Mg783   2.270       .  S
Mg752       O758   2.127       .  S
Mg752       O766   2.269       .  S
Mg752       O754   2.303       .  S
C753        O791   1.271       .  A
C753        O759   1.275       .  A
C753        C978   1.463       .  S
O754        C761   1.276       .  A
H755        C768   1.081       .  S
C756        O770   1.237       .  S
C756        O771   1.270       .  A
C756        H781   1.081       .  S
O757        C780   1.269       .  A
O758       Mg772   2.164       .  S
O759       Mg789   2.300       .  S
C760        O773   1.274       .  A
C760        O765   1.273       .  A
C760       C1018   1.468       .  S
C761        O788   1.273       .  A
C761        C793   1.469       .  S
Mg762       O769   2.118       .  S
Mg762       O770   2.162       .  S
Mg762       O763   2.294       .  S
Mg762       O764   2.286       .  S
Mg762       O791   2.241       .  S
O764        C768   1.268       .  A
O765       Mg772   2.286       .  S
O766        C785   1.274       .  A
O767        C787   1.274       .  A
O767       Mg783   2.290       .  S
O769       Mg783   2.155       .  S
O769        C780   1.236       .  S
O770       Mg789   2.137       .  S
O771       Mg783   2.293       .  S
Mg772       O788   2.268       .  S
O773       Mg789   2.274       .  S
H774        C779   1.081       .  S
O775       Mg783   2.128       .  S
O775        C778   1.237       .  S
H776        C778   1.081       .  S
H777        C780   1.081       .  S
O782       Mg789   2.287       .  S
C785        O790   1.276       .  A
C785        C942   1.470       .  S
O786        C787   1.275       .  A
C787       C1046   1.470       .  S
C792        C794   1.530       .  S
C792        C813   1.525       .  S
C792        C822   1.524       .  S
C792       C1162   1.529       .  S
C793        C794   1.351       .  D
C793        H795   1.087       .  S
C794        H796   1.087       .  S
C797        C798   1.347       .  D
C797        H799   1.087       .  S
C798        H800   1.087       .  S
C801        C802   1.346       .  D
C801        H803   1.087       .  S
C802        H804   1.087       .  S
C805        C806   1.345       .  D
C805        H807   1.087       .  S
C806        H808   1.087   1_655  S
C809        C810   1.344       .  D
C809        H811   1.087       .  S
C810        H812   1.087       .  S
C813        C814   1.346       .  D
C813        H815   1.087       .  S
C814        H816   1.087       .  S
C817        C818   1.351       .  D
C817        H819   1.087       .  S
C818        H820   1.086       .  S
C821        C822   1.346       .  D
C821        H823   1.087       .  S
C822        H824   1.087       .  S
C825        C826   1.351       .  D
C825        H827   1.087       .  S
C826        H828   1.087       .  S
C829        C830   1.350       .  D
C829        H831   1.082       .  S
C830        H832   1.087       .  S
C833        C834   1.344       .  D
C833        H835   1.086   1_655  S
C834        H836   1.087       .  S
C837        C838   1.347       .  D
C837        H839   1.085       .  S
C838        H840   1.088       .  S
C841        C842   1.343       .  D
C841        H843   1.087       .  S
C842        H844   1.087       .  S
C845        C846   1.344       .  D
C845        H847   1.087       .  S
C846        H848   1.087   1_545  S
C849        C850   1.350       .  D
C849        H851   1.087   1_556  S
C850        H852   1.081       .  S
C853        C854   1.347       .  D
C853        H855   1.087   1_554  S
C854        H856   1.086       .  S
C857        C858   1.352       .  D
C857        H859   1.086       .  S
C858        H860   1.087       .  S
C861        C862   1.351       .  D
C861        H863   1.086       .  S
C862        H864   1.086       .  S
C865        C866   1.351       .  D
C865        H867   1.087       .  S
C866        H868   1.087       .  S
C869        C870   1.348       .  D
C869        H871   1.086       .  S
C870        H872   1.087       .  S
C873        C874   1.349       .  D
C873        H875   1.086       .  S
C874        H876   1.086       .  S
C877        C878   1.351       .  D
C877        H879   1.087   1_455  S
C878        H880   1.087       .  S
C881        C882   1.352       .  D
C881        H883   1.086       .  S
C882        H884   1.087       .  S
C885        C886   1.350       .  D
C885        H887   1.087       .  S
C886        H888   1.087       .  S
C889        C890   1.354       .  D
C889        H891   1.087   1_565  S
C890        H892   1.087       .  S
C893        C894   1.353       .  D
C893        H895   1.087       .  S
C894        H896   1.086   1_545  S
C897        C898   1.348       .  D
C897        H899   1.087       .  S
C898        H900   1.087       .  S
C901        C902   1.352       .  D
C901        H903   1.087       .  S
C902        H904   1.087       .  S
C905        C906   1.351       .  D
C905        H907   1.087       .  S
C906        H908   1.087       .  S
C909        C910   1.351       .  D
C909        H911   1.087   1_655  S
C910        H912   1.087       .  S
C913        C914   1.352       .  D
C913        H915   1.087       .  S
C914        H916   1.087       .  S
C917        C918   1.349       .  D
C917        H919   1.087       .  S
C918        H920   1.087       .  S
C921        C922   1.337       .  D
C921        H923   1.085       .  S
C922        H924   1.089       .  S
C925        C926   1.335       .  D
C925        H927   1.086       .  S
C926        H928   1.089       .  S
C929        C930   1.346       .  D
C929        H931   1.087       .  S
C930        H932   1.087       .  S
C933        C934   1.348       .  D
C933        H935   1.087       .  S
C934        H936   1.087       .  S
C937        C938   1.350       .  D
C937        H939   1.087       .  S
C938        H940   1.087       .  S
C941        C942   1.348       .  D
C941        H943   1.087       .  S
C942        H944   1.087       .  S
C945        C946   1.346       .  D
C945        H947   1.087       .  S
C946        H948   1.087       .  S
C949        C950   1.346       .  D
C949        H951   1.087   1_556  S
C950        H952   1.087       .  S
C953        C954   1.350       .  D
C953        H955   1.087       .  S
C954        H956   1.087       .  S
C957        C958   1.350       .  D
C957        H959   1.087       .  S
C958        H960   1.087       .  S
C961        C962   1.353       .  D
C961        H963   1.087       .  S
C962        H964   1.087       .  S
C965        C966   1.348       .  D
C965        H967   1.087       .  S
C966        H968   1.087       .  S
C969        C970   1.344   1_655  D
C969        H971   1.088       .  S
C970        H972   1.087       .  S
C973        C974   1.344       .  D
C973        H975   1.087       .  S
C974        H976   1.087   1_455  S
C977        C978   1.347       .  D
C977        H979   1.087       .  S
C978        H980   1.087       .  S
C981        C982   1.346       .  D
C981        H983   1.087       .  S
C982        H984   1.087       .  S
C985        C986   1.348       .  D
C985        H987   1.087       .  S
C986        H988   1.087       .  S
C989        C990   1.345       .  D
C989        H991   1.087       .  S
C990        H992   1.087       .  S
C993        C994   1.349       .  D
C993        H995   1.087       .  S
C994        H996   1.086       .  S
C997        C998   1.349       .  D
C997        H999   1.087       .  S
C998       H1000   1.087       .  S
C1001      C1002   1.348       .  D
C1001      H1003   1.087       .  S
C1002      H1004   1.087       .  S
C1005      C1006   1.353       .  D
C1005      H1007   1.087       .  S
C1006      H1008   1.087       .  S
C1009      C1010   1.349       .  D
C1009      H1011   1.087       .  S
C1010      H1012   1.087       .  S
C1013      C1014   1.349       .  D
C1013      H1015   1.087       .  S
C1014      H1016   1.087       .  S
C1017      C1018   1.345       .  D
C1017      H1019   1.087       .  S
C1018      H1020   1.087       .  S
C1021      C1022   1.347       .  D
C1021      H1023   1.087       .  S
C1022      H1024   1.087       .  S
C1025      C1026   1.347       .  D
C1025      H1027   1.087       .  S
C1026      H1028   1.087       .  S
C1029      C1030   1.354       .  D
C1029      H1031   1.087       .  S
C1030      H1032   1.086       .  S
C1033      C1034   1.352       .  D
C1033      H1035   1.086       .  S
C1034      H1036   1.087       .  S
C1037      C1038   1.351       .  D
C1037      H1039   1.087       .  S
C1038      H1040   1.087       .  S
C1041      C1042   1.349       .  D
C1041      H1043   1.087       .  S
C1042      H1044   1.087       .  S
C1045      C1046   1.348       .  D
C1045      H1047   1.087       .  S
C1046      H1048   1.087       .  S
C1049      C1050   1.351       .  D
C1049      H1051   1.087       .  S
C1050      H1052   1.087       .  S
C1053      C1054   1.353       .  D
C1053      H1055   1.087       .  S
C1054      H1056   1.087       .  S
C1057      C1058   1.356       .  D
C1057      H1059   1.086       .  S
C1058      H1060   1.087   1_545  S
C1061      C1062   1.351       .  D
C1061      H1063   1.087       .  S
C1062      H1064   1.087       .  S
C1065      C1066   1.349       .  D
C1065      H1067   1.087       .  S
C1066      H1068   1.087       .  S
C1069      C1070   1.349       .  D
C1069      H1071   1.087       .  S
C1070      H1072   1.087       .  S
C1073      C1074   1.347       .  D
C1073      H1075   1.087       .  S
C1074      H1076   1.087   1_554  S
C1077      C1078   1.347   1_554  D
C1077      H1079   1.087       .  S
C1078      H1080   1.085       .  S
C1081      C1082   1.347       .  D
C1081      H1083   1.086       .  S
C1082      H1084   1.087       .  S
C1085      C1086   1.347       .  D
C1085      H1087   1.087       .  S
C1086      H1088   1.087       .  S
C1089      C1090   1.352       .  D
C1089      H1091   1.087       .  S
C1090      H1092   1.086       .  S
C1093      C1094   1.346       .  D
C1093      H1095   1.086       .  S
C1094      H1096   1.087       .  S
C1097      C1098   1.351       .  D
C1097      H1099   1.087       .  S
C1098      H1100   1.086       .  S
C1101      C1102   1.346       .  D
C1101      H1103   1.087       .  S
C1102      H1104   1.087       .  S
C1105      C1106   1.347       .  D
C1105      H1107   1.087       .  S
C1106      H1108   1.086       .  S
C1109      C1110   1.346       .  D
C1109      H1111   1.087       .  S
C1110      H1112   1.087       .  S
C1113      C1114   1.344       .  D
C1113      H1115   1.088       .  S
C1114      H1116   1.086       .  S
C1117      C1118   1.346       .  D
C1117      H1119   1.087       .  S
C1118      H1120   1.087       .  S
C1121      C1122   1.348       .  D
C1121      H1123   1.083       .  S
C1122      H1124   1.086       .  S
C1125      C1126   1.350       .  D
C1125      H1127   1.087       .  S
C1126      H1128   1.086       .  S
C1129      C1130   1.353       .  D
C1129      H1131   1.086       .  S
C1130      H1132   1.087       .  S
C1133      C1134   1.350       .  D
C1133      H1135   1.086       .  S
C1134      H1136   1.087       .  S
C1137      C1138   1.347       .  D
C1137      H1139   1.086       .  S
C1138      H1140   1.087       .  S
C1141      C1142   1.333   1_545  D
C1141      H1143   1.089       .  S
C1142      H1144   1.086       .  S
C1145      C1146   1.347   1_545  D
C1145      H1147   1.086       .  S
C1146      H1148   1.087       .  S
C1149      C1150   1.351       .  D
C1149      H1151   1.087       .  S
C1150      H1152   1.086       .  S
C1153      C1154   1.348       .  D
C1153      H1155   1.087       .  S
C1154      H1156   1.087       .  S
C1157      C1158   1.347       .  D
C1157      H1159   1.087       .  S
C1158      H1160   1.087       .  S
C1161      C1162   1.350       .  D
C1161      H1163   1.087       .  S
C1162      H1164   1.087       .  S
C1165      C1166   1.353       .  D
C1165      H1167   1.081       .  S
C1166      H1168   1.087       .  S
C1169      C1170   1.348       .  D
C1169      H1171   1.087       .  S
C1170      H1172   1.087       .  S
C1173      C1174   1.345       .  D
C1173      H1175   1.086       .  S
C1174      H1176   1.087       .  S
