geometry optimzed in LAMMPS
_audit_creation_date              2020-11-30 
_audit_creation_method            'lammps2cif' 
_symmetry_space_group_name_H-M    'P1' 
_symmetry_Int_Tables_number       1 
_symmetry_cell_setting            triclinic 
loop_ 
_symmetry_equiv_pos_as_xyz 
  x,y,z 
_cell_length_a                    55.90815246 
_cell_length_b                    55.97663457499596 
_cell_length_c                    56.06727740784169 
_cell_angle_alpha                 90.07978199245717 
_cell_angle_beta                  89.86498734653206 
_cell_angle_gamma                 90.052995822596 
loop_ 
_atom_site_label 
_atom_site_type_symbol 
_atom_site_fract_x 
_atom_site_fract_y 
_atom_site_fract_z 
_atom_site_charge 
O1          O  0.72788322  0.75490114  0.78615313    -0.87800
C2          C  0.73367097  0.69416188  0.74744833     0.88200
Mg3        Mg  0.70846685  0.78474908  0.77267727     1.58100
O4          O  0.78603960  0.72792471  0.74940797    -0.87500
O5          O  0.76432256  0.74591831  0.79781289    -0.74900
C6          C  0.74780463  0.79862662  0.66118515     0.93300
O7          O  0.69027850  0.73127513  0.74991981    -0.74700
O8          O  0.72985538  0.80281487  0.67453853    -0.82200
Mg9        Mg  0.70965592  0.72134099  0.78476615     1.58000
C10         C  0.82743140  0.74154320  0.69112358     0.93200
O11         O  0.72656167  0.71026943  0.82071030    -0.80400
H12         H  0.81153542  0.74420095  0.76838313    -0.05800
C13         C  0.74576034  0.73605916  0.68994958     0.88100
O14         O  0.74383547  0.80198419  0.76012326    -0.75000
O15         O  0.73890058  0.70727306  0.76450276    -0.87700
O16         O  0.81871437  0.72405192  0.70289068    -0.80500
C17         C  0.79442825  0.66349399  0.74712878     0.93300
C18         C  0.74444593  0.69859079  0.82865184     0.93200
Mg19       Mg  0.78167473  0.77394165  0.70481680     1.58000
O20         O  0.76592361  0.78685002  0.66856904    -0.80500
O21         O  0.80017696  0.76321385  0.73979971    -0.74700
O22         O  0.78344855  0.67219792  0.76516963    -0.80500
O23         O  0.67710283  0.73547758  0.80485703    -0.82200
O24         O  0.70682865  0.82173613  0.72343994    -0.80600
C25         C  0.79987871  0.74480717  0.75306503     0.87600
O26         O  0.75188551  0.78758636  0.72455403    -0.87700
O27         O  0.76342174  0.74037770  0.70254592    -0.87800
O28         O  0.72709559  0.74904248  0.69049950    -0.74900
Mg29       Mg  0.77354034  0.70968819  0.78042577     1.58000
O30         O  0.80007179  0.67653725  0.72942307    -0.82200
H31         H  0.74626145  0.77533128  0.80893995    -0.06000
O32         O  0.70458571  0.76624414  0.73950423    -0.87500
H33         H  0.67882806  0.74979395  0.72101668    -0.05800
H34         H  0.77241939  0.81224412  0.74024084    -0.06000
C35         C  0.69063054  0.74938071  0.73622681     0.87600
C36         C  0.74590707  0.75930453  0.79823905     0.88200
C37         C  0.75663507  0.80117447  0.74133632     0.88200
H38         H  0.74589098  0.72033383  0.67878325    -0.05900
O39         O  0.74618161  0.69347476  0.72843409    -0.75000
Mg40       Mg  0.71739464  0.78473332  0.70841805     1.58000
H41         H  0.71762647  0.68346569  0.74848404    -0.06000
C42         C  0.66425545  0.75378303  0.80068641     0.93200
O43         O  0.68935156  0.81727600  0.75879836    -0.82200
C44         C  0.69526051  0.83024528  0.74113802     0.93300
O45         O  0.76170636  0.69245415  0.81512648    -0.82200
Mg46       Mg  0.78194937  0.71000638  0.71611396     1.58200
O47         O  0.67195664  0.77088885  0.78767208    -0.80500
O48         O  0.81487762  0.75979887  0.68585555    -0.82200
C49         C  0.62283543  0.99692818  0.75598609    -0.01900
O50         O  0.75319434  0.20859765  0.76703516    -0.87800
C51         C  0.69158342  0.24523564  0.75591045     0.88200
Mg52       Mg  0.78303734  0.22444954  0.78419924     1.58100
O53         O  0.72667046  0.23882444  0.70454308    -0.87500
O54         O  0.74583835  0.19333826  0.73172175    -0.74900
C55         C  0.79658553  0.33129756  0.73424827     0.93300
O56         O  0.72907383  0.24932334  0.79950531    -0.74700
O57         O  0.80028711  0.31943774  0.75316037    -0.82200
Mg58       Mg  0.71924575  0.21238495  0.78457034     1.58000
C59         C  0.73797809  0.29467921  0.65828557     0.93200
O60         O  0.70738091  0.17482207  0.77300044    -0.80400
H61         H  0.74278127  0.21834004  0.68012828    -0.05800
C62         C  0.73307180  0.30221585  0.73902182     0.88100
O63         O  0.79974279  0.23319721  0.74744510    -0.75000
O64         O  0.70555330  0.22834995  0.75280295    -0.87700
O65         O  0.72123470  0.28226896  0.66763023    -0.80500
C66         C  0.66308281  0.23613366  0.69424328     0.93300
C67         C  0.69709149  0.16461460  0.75549110     0.93200
Mg68       Mg  0.77123804  0.28500158  0.70449555     1.58000
O69         O  0.78440984  0.32274364  0.71692034    -0.80500
O70         O  0.76119024  0.24838140  0.68868813    -0.74700
O71         O  0.67235068  0.21994115  0.70719901    -0.80500
O72         O  0.73323751  0.19678169  0.81910866    -0.82200
O73         O  0.81961623  0.27422346  0.78093205    -0.80600
C74         C  0.74325773  0.23453690  0.69055580     0.87600
O75         O  0.78535553  0.26780081  0.73578933    -0.87700
O76         O  0.73746192  0.28817351  0.72249907    -0.87800
O77         O  0.74634072  0.30364451  0.75738611    -0.74900
Mg78       Mg  0.70964835  0.20847416  0.72018691     1.58000
O79         O  0.67448348  0.25487588  0.68815263    -0.82200
H80         H  0.77445178  0.18422514  0.75186722    -0.06000
O81         O  0.76430490  0.25768369  0.78449651    -0.87500
H82         H  0.74786314  0.27918406  0.80777617    -0.05800
H83         H  0.80953946  0.24967143  0.71671019    -0.06000
C84         C  0.74738587  0.26268752  0.79785170     0.87600
C85         C  0.75830651  0.19471734  0.75058948     0.88200
C86         C  0.79875313  0.25044461  0.73267382     0.88200
H87         H  0.71714236  0.31305330  0.73814411    -0.05900
O88         O  0.69053179  0.26277938  0.74155089    -0.75000
Mg89       Mg  0.78238633  0.28723901  0.76863174     1.58000
H90         H  0.68049582  0.24543962  0.77168908    -0.06000
C91         C  0.75175206  0.20216827  0.83115852     0.93200
O92         O  0.81602453  0.24030076  0.80119156    -0.82200
C93         C  0.82847638  0.25795308  0.79411180     0.93300
O94         O  0.69334342  0.17511458  0.73576615    -0.82200
Mg95       Mg  0.70738569  0.27174615  0.70519297     1.58200
O96         O  0.76910780  0.21382775  0.82189961    -0.80500
O97         O  0.75605293  0.30136656  0.67047221    -0.82200
C98         C  0.87416603  0.49874348  0.73734459    -0.01900
C99         C  0.75560544  0.87739961  0.49629743    -0.01900
O100        O  0.77249366  0.75336673  0.20661714    -0.87800
C101        C  0.75875633  0.69341200  0.24586315     0.88200
Mg102      Mg  0.79337315  0.78262646  0.22015698     1.58100
O103        O  0.70983428  0.73209097  0.24109441    -0.87500
O104        O  0.73604847  0.74677704  0.19339925    -0.74900
C105        C  0.75131206  0.79881338  0.33049998     0.93300
O106        O  0.80589562  0.72777475  0.24527462    -0.74700
O107        O  0.77007036  0.80234222  0.31809800    -0.82200
Mg108      Mg  0.78739448  0.71823014  0.20996759     1.58000
C109        C  0.66881172  0.75056489  0.29928213     0.93200
O110        O  0.77177920  0.70671569  0.17338261    -0.80400
H111        H  0.68698631  0.75055361  0.22087775    -0.05800
C112        C  0.74946500  0.73701509  0.30111407     0.88100
O113        O  0.75898428  0.80229530  0.23116823    -0.75000
O114        O  0.75581477  0.70714427  0.22882903    -0.87700
O115        O  0.67546845  0.73212685  0.28755636    -0.80500
C116        C  0.69464223  0.66916001  0.24392379     0.93300
C117        C  0.75327907  0.69618429  0.16512976     0.93200
Mg118      Mg  0.71760015  0.77796925  0.28517141     1.58000
O119        O  0.73297778  0.78856937  0.32170363    -0.80500
O120        O  0.69925055  0.76886385  0.24962028    -0.74700
O121        O  0.70725861  0.67619541  0.22620779    -0.80500
O122        O  0.82202973  0.72911438  0.19171618    -0.82200
O123        O  0.79634216  0.81949232  0.27000105    -0.80600
C124        C  0.69805027  0.75025292  0.23664079     0.87600
O125        O  0.74902609  0.78871666  0.26653037    -0.87700
O126        O  0.73243523  0.74290565  0.28828256    -0.87800
O127        O  0.76912877  0.74850785  0.30125738    -0.74900
Mg128      Mg  0.72234651  0.71209763  0.21106019     1.58000
O129        O  0.68999326  0.68284108  0.26145994    -0.82200
H130        H  0.75697837  0.77423603  0.18225733    -0.06000
O131        O  0.79513395  0.76450102  0.25381322    -0.87500
H132        H  0.81854970  0.74636271  0.27365097    -0.05800
H133        H  0.73081553  0.81473577  0.25033902    -0.06000
C134        C  0.80720850  0.74648746  0.25808872     0.87600
C135        C  0.75549776  0.75866093  0.19349356     0.88200
C136        C  0.74576402  0.80256490  0.24965404     0.88200
H137        H  0.74785330  0.72114759  0.31192381    -0.05900
O138        O  0.74523275  0.69391374  0.26415128    -0.75000
Mg139      Mg  0.78238503  0.78354665  0.28434004     1.58000
H140        H  0.77355387  0.68103992  0.24543446    -0.06000
C141        C  0.83601145  0.74674624  0.19529474     0.93200
O142        O  0.81346998  0.81555587  0.23432839    -0.82200
C143        C  0.80834066  0.82814673  0.25267437     0.93300
O144        O  0.73472839  0.69263263  0.17784540    -0.82200
Mg145      Mg  0.71106150  0.71442972  0.27487391     1.58200
O146        O  0.82907978  0.76538723  0.20664484    -0.80500
O147        O  0.68306181  0.76776336  0.30350666    -0.82200
C148        C  0.75284891  0.62473740  0.99606698    -0.01900
C149        C  0.50374663  0.75014634  0.38030920    -0.01900
C150        C  0.12751377  0.00235215  0.75236732    -0.01900
C151        C  0.75223626  0.12176380  0.99652212    -0.01900
C152        C  0.37499208  0.50085132  0.75922538    -0.01900
C153        C  0.74467103  0.37543673  0.49480764    -0.01900
C154        C  0.61991004  0.50027812  0.25460348    -0.01900
C155        C  0.24462607  0.62492901  0.50628010    -0.01900
C156        C  0.00504333  0.74660792  0.12033823    -0.01900
O157        O  0.27596797  0.77913326  0.28629499    -0.87800
C158        C  0.28176393  0.76526159  0.21564497     0.88200
Mg159      Mg  0.27667958  0.75127797  0.31225452     1.58100
O160        O  0.22352143  0.77880609  0.23442278    -0.87500
O161        O  0.25130560  0.80729831  0.27482375    -0.74900
C162        C  0.20437102  0.66608214  0.27044497     0.93300
O163        O  0.30526913  0.73795464  0.25993015    -0.74700
O164        O  0.22154561  0.66916457  0.28497049    -0.82200
Mg165      Mg  0.30385627  0.77910907  0.26006675     1.58000
C166        C  0.16548230  0.73864101  0.21163701     0.93200
O167        O  0.30610578  0.82072614  0.25975229    -0.80400
H168        H  0.20015585  0.80100818  0.24985284    -0.05800
C169        C  0.23843533  0.70770290  0.22782022     0.88100
O170        O  0.23541798  0.75100024  0.31346343    -0.75000
O171        O  0.27732993  0.77844094  0.23284368    -0.87700
O172        O  0.18286483  0.75101245  0.20341026    -0.80500
C173        C  0.23824455  0.79938546  0.17523385     0.93300
C174        C  0.29725827  0.83836435  0.24830886     0.93200
Mg175      Mg  0.19682682  0.72493628  0.25792882     1.58000
O176        O  0.19561862  0.68337340  0.25845124    -0.80500
O177        O  0.19458192  0.76606296  0.25768499    -0.74700
O178        O  0.24972451  0.80844743  0.19270986    -0.80500
O179        O  0.33294664  0.77795851  0.28789335    -0.82200
O180        O  0.24846231  0.69822063  0.32607560    -0.80600
C181        C  0.20583496  0.78278398  0.24714807     0.87600
O182        O  0.22316642  0.72655203  0.28528383    -0.87700
O183        O  0.22528292  0.72494589  0.23228053    -0.87800
O184        O  0.24955848  0.69657795  0.24416665    -0.74900
Mg185      Mg  0.25083306  0.80602538  0.23385446     1.58000
O186        O  0.22504345  0.78101495  0.17766619    -0.82200
H187        H  0.26021365  0.80139151  0.30936180    -0.06000
O188        O  0.27685132  0.72552838  0.28402058    -0.87500
H189        H  0.29944244  0.70307440  0.26782897    -0.05800
H190        H  0.20053592  0.74291078  0.30759424    -0.06000
C191        C  0.29411854  0.72136554  0.27078027     0.87600
C192        C  0.26273926  0.79623475  0.29096636     0.88200
C193        C  0.21889341  0.73997738  0.30236148     0.88200
H194        H  0.24107420  0.70240867  0.20950790    -0.05900
O195        O  0.26546460  0.75369752  0.20483765    -0.75000
Mg196      Mg  0.24936793  0.69880481  0.28516243     1.58000
H197        H  0.30014078  0.76284902  0.21019363    -0.06000
C198        C  0.33572136  0.76384854  0.30545129     0.93200
O199        O  0.27574704  0.72282688  0.34104720    -0.82200
C200        C  0.26009416  0.70651230  0.34374746     0.93300
O201        O  0.27911826  0.83566913  0.23479163    -0.82200
Mg202      Mg  0.22438700  0.75269490  0.20622074     1.58200
O203        O  0.31826378  0.75195913  0.31422208    -0.80500
O204        O  0.16805005  0.72494621  0.22955359    -0.82200
C205        C  0.24984302  0.87791958  0.00911907    -0.01900
C206        C  0.49385799  0.24993649  0.62658895    -0.01900
O207        O  0.26802311  0.27914116  0.77990990    -0.87800
C208        C  0.19980075  0.28096126  0.75660207     0.88200
Mg209      Mg  0.29788796  0.28235418  0.75650890     1.58100
O210        O  0.22125414  0.22475490  0.77278321    -0.87500
O211        O  0.25454741  0.25439093  0.80692936    -0.74900
C212        C  0.27615465  0.20754127  0.66654280     0.93300
O213        O  0.24606107  0.30765975  0.73621090    -0.74700
O214        O  0.28721664  0.22680974  0.67149237    -0.82200
Mg215      Mg  0.24051908  0.30550781  0.77698125     1.58000
C216        C  0.20961409  0.16508387  0.73400123     0.93200
O217        O  0.23460499  0.30611039  0.81811410    -0.80400
H218        H  0.23539158  0.20290160  0.79709709    -0.05800
C219        C  0.22390832  0.23830832  0.70118584     0.88100
O220        O  0.30262540  0.24153486  0.75604725    -0.75000
O221        O  0.21490957  0.27760226  0.77239177    -0.87700
O222        O  0.19913996  0.18279549  0.74368100    -0.80500
C223        C  0.15839565  0.23268135  0.78566708     0.93300
C224        C  0.22132767  0.29643699  0.83401943     0.93200
Mg225      Mg  0.25437820  0.19924691  0.72298380     1.58000
O226        O  0.26243063  0.19722218  0.68174578    -0.80500
O227        O  0.24830628  0.19779541  0.76364434    -0.74700
O228        O  0.17340084  0.24528839  0.79730575    -0.80500
O229        O  0.26671307  0.33640475  0.78023204    -0.82200
O230        O  0.32146668  0.25837607  0.70489386    -0.80600
C231        C  0.23471896  0.20822453  0.77862392     0.87600
O232        O  0.27945821  0.22762142  0.72765543    -0.87700
O233        O  0.22694390  0.22590171  0.71917033    -0.87800
O234        O  0.24069661  0.25081588  0.69233376    -0.74900
Mg235      Mg  0.21428900  0.25074719  0.79980414     1.58000
O236        O  0.16421852  0.22141388  0.76683469    -0.82200
H237        H  0.28901131  0.26564994  0.80535077    -0.06000
O238        O  0.27361807  0.28119500  0.72689368    -0.87500
H239        H  0.25903484  0.30293285  0.70269187    -0.05800
H240        H  0.30109159  0.20657297  0.74661445    -0.06000
C241        C  0.25983638  0.29753218  0.72115763     0.87600
C242        C  0.27130108  0.26666073  0.79776099     0.88200
C243        C  0.29477014  0.22447452  0.74325482     0.88200
H244        H  0.20635565  0.23911024  0.69325096    -0.05900
O245        O  0.19233215  0.26416557  0.74322605    -0.75000
Mg246      Mg  0.28080039  0.25443293  0.70042378     1.58000
H247        H  0.19352114  0.29891073  0.75343535    -0.06000
C248        C  0.28580968  0.34010402  0.76838392     0.93200
O249        O  0.33082867  0.28471879  0.73315624    -0.82200
C250        C  0.33676959  0.27100531  0.71607860     0.93300
O251        O  0.20863164  0.27812391  0.82929731    -0.82200
Mg252      Mg  0.19713366  0.22344862  0.74313889     1.58200
O253        O  0.29679033  0.32330393  0.75763071    -0.80500
O254        O  0.22786717  0.16803946  0.72058971    -0.82200
C255        C  0.99544020  0.24771339  0.86821566    -0.01900
O256        O  0.77753865  0.22157697  0.21789946    -0.87800
C257        C  0.70724674  0.21922574  0.23520234     0.88200
Mg258      Mg  0.80427223  0.21865727  0.24447520     1.58100
O259        O  0.72725121  0.27645837  0.22024880    -0.87500
O260        O  0.76570601  0.24738267  0.19087782    -0.74900
C261        C  0.76926973  0.29369371  0.33109729     0.93300
O262        O  0.75142997  0.19135826  0.25948353    -0.74700
O263        O  0.78054533  0.27420977  0.32770118    -0.82200
Mg264      Mg  0.75028508  0.19471718  0.21864455     1.58000
C265        C  0.70856703  0.33640583  0.26015731     0.93200
O266        O  0.74938090  0.19467310  0.17794908    -0.80400
H267        H  0.74314071  0.29869725  0.19728957    -0.05800
C268        C  0.72206784  0.26205247  0.29080984     0.88100
O269        O  0.80761654  0.25975410  0.24604590    -0.75000
O270        O  0.72424416  0.22271521  0.22141020    -0.87700
O271        O  0.69934924  0.31917740  0.24824979    -0.80500
C272        C  0.66617694  0.26299390  0.20208061     0.93300
C273        C  0.73778213  0.20370397  0.16069086     0.93200
Mg274      Mg  0.75437850  0.30213386  0.27278325     1.58000
O275        O  0.75785328  0.30412366  0.31431245    -0.80500
O276        O  0.75266221  0.30399115  0.23178806    -0.74700
O277        O  0.68321182  0.25051192  0.19338981    -0.80500
O278        O  0.77702902  0.16409703  0.21682026    -0.82200
O279        O  0.81998942  0.24325413  0.29888453    -0.80600
C280        C  0.74081128  0.29332088  0.21562629     0.87600
O281        O  0.78026324  0.27356408  0.27065248    -0.87700
O282        O  0.72665704  0.27553368  0.27391018    -0.87800
O283        O  0.73804174  0.24929458  0.30066574    -0.74900
Mg284      Mg  0.72463689  0.24900895  0.19364151     1.58000
O285        O  0.66988346  0.27771082  0.21906012    -0.82200
H286        H  0.80027484  0.23740256  0.19533753    -0.06000
O287        O  0.77638456  0.21922989  0.27099906    -0.87500
H288        H  0.76125692  0.19642895  0.29393790    -0.05800
H289        H  0.80404361  0.29481037  0.25454404    -0.06000
C290        C  0.76324468  0.20205126  0.27563634     0.87600
C291        C  0.78196378  0.23521071  0.20105661     0.88200
C292        C  0.79759452  0.27684250  0.25725053     0.88200
H293        H  0.70376327  0.26037301  0.29674542    -0.05900
O294        O  0.69701253  0.23623585  0.24635849    -0.75000
Mg295      Mg  0.77892443  0.24653634  0.29793946     1.58000
H296        H  0.70130858  0.20115699  0.23830293    -0.06000
C297        C  0.79570617  0.16023285  0.22915035     0.93200
O298        O  0.83332450  0.21698863  0.27200216    -0.82200
C299        C  0.83669970  0.23062797  0.28981833     0.93300
O300        O  0.72360502  0.22122321  0.16386717    -0.82200
Mg301      Mg  0.69978272  0.27739995  0.24682674     1.58200
O302        O  0.80537794  0.17686716  0.24150411    -0.80500
O303        O  0.72696202  0.33298209  0.27322504    -0.82200
C304        C  0.88054239  0.99739527  0.25036080    -0.01900
C305        C  0.99916557  0.24764789  0.37180323    -0.01900
O306        O  0.25647153  0.29192739  0.22886867    -0.87800
C307        C  0.19582167  0.25400815  0.24108136     0.88200
Mg308      Mg  0.28702897  0.27669788  0.21209580     1.58100
O309        O  0.23111491  0.26329138  0.29173409    -0.87500
O310        O  0.24795022  0.30893609  0.26312921    -0.74900
C311        C  0.30136196  0.17014682  0.26348515     0.93300
O312        O  0.23391872  0.24979818  0.19751289    -0.74700
O313        O  0.30671567  0.18202606  0.24489608    -0.82200
Mg314      Mg  0.22291452  0.28691283  0.21123288     1.58000
C315        C  0.24500318  0.20869816  0.33942208     0.93200
O316        O  0.21018737  0.32466928  0.22172581    -0.80400
H317        H  0.24774170  0.28495268  0.31471844    -0.05800
C318        C  0.23904241  0.19914350  0.25852621     0.88100
O319        O  0.30369455  0.26930113  0.24898592    -0.75000
O320        O  0.20918525  0.27151872  0.24342635    -0.87700
O321        O  0.22796110  0.22087920  0.33040903    -0.80500
C322        C  0.16752427  0.26272293  0.30280678     0.93300
C323        C  0.19921822  0.33537443  0.23858392     0.93200
Mg324      Mg  0.27678013  0.21751948  0.29234246     1.58000
O325        O  0.28918143  0.17936268  0.28048766    -0.80500
O326        O  0.26616482  0.25466489  0.30702596    -0.74700
O327        O  0.17540829  0.27908788  0.28899466    -0.80500
O328        O  0.23706286  0.30191334  0.17633063    -0.82200
O329        O  0.32549697  0.22839132  0.21657561    -0.80600
C330        C  0.24808374  0.26832847  0.30498314     0.87600
O331        O  0.29065352  0.23422324  0.26093065    -0.87700
O332        O  0.24325632  0.21370084  0.27465690    -0.87800
O333        O  0.25249376  0.19722653  0.24025366    -0.74900
Mg334      Mg  0.21236986  0.29255053  0.27535618     1.58000
O335        O  0.18049014  0.24541994  0.30969551    -0.82200
H336        H  0.27652497  0.31802075  0.24273368    -0.06000
O337        O  0.26954221  0.24279579  0.21227110    -0.87500
H338        H  0.25339340  0.22021130  0.18984892    -0.05800
H339        H  0.31403289  0.25349147  0.27983443    -0.06000
C340        C  0.25260387  0.23699666  0.19930414     0.87600
C341        C  0.26082110  0.30692851  0.24451806     0.88200
C342        C  0.30336506  0.25212773  0.26385941     0.88200
H343        H  0.22320538  0.18820937  0.25970406    -0.05900
O344        O  0.19550289  0.23694728  0.25607616    -0.75000
Mg345      Mg  0.28840664  0.21405028  0.22869793     1.58000
H346        H  0.18456882  0.25286726  0.22549382    -0.06000
C347        C  0.25577075  0.29669260  0.16441281     0.93200
O348        O  0.32059756  0.26170232  0.19565757    -0.82200
C349        C  0.33384042  0.24493282  0.20327636     0.93300
O350        O  0.19471344  0.32523374  0.25846245    -0.82200
Mg351      Mg  0.21324155  0.22957554  0.29242482     1.58200
O352        O  0.27332757  0.28580576  0.17404844    -0.80500
O353        O  0.26238811  0.20152520  0.32658164    -0.82200
C354        C  0.24942773  0.37482342  0.99821933    -0.01900
C355        C  0.38121229  0.00401300  0.25655268    -0.01900
O356        O  0.96846739  0.00533216  0.47925596    -0.87800
C357        C  0.00712552  0.94444003  0.48810342     0.88200
Mg358      Mg  0.98173477  0.03647917  0.46182795     1.58100
O359        O  0.00018004  0.97889915  0.53981485    -0.87500
O360        O  0.95311346  0.99556599  0.51395256    -0.74900
C361        C  0.09050408  0.05052589  0.50708144     0.93300
O362        O  0.00874772  0.98332689  0.44541574    -0.74700
O363        O  0.07767926  0.05676392  0.48946382    -0.82200
Mg364      Mg  0.97253036  0.97188611  0.46121374     1.58000
C365        C  0.05627798  0.99330679  0.58393164     0.93200
O366        O  0.93504221  0.95968093  0.47421238    -0.80400
H367        H  0.97926106  0.99521691  0.56376875    -0.05800
C368        C  0.06190168  0.98851456  0.50272364     0.88100
O369        O  0.99098073  0.05324060  0.49813374    -0.75000
O370        O  0.98996323  0.95787398  0.49195535    -0.87700
O371        O  0.04447877  0.97597608  0.57498808    -0.80500
C372        C  0.00205245  0.91497152  0.54991551     0.93300
C373        C  0.92590271  0.94747949  0.49116001     0.93200
Mg374      Mg  0.04476209  0.02551251  0.53782841     1.58000
O375        O  0.08202345  0.03774222  0.52396069    -0.80500
O376        O  0.00855122  0.01444672  0.55425045    -0.74700
O377        O  0.98487351  0.92342984  0.53758426    -0.80500
O378        O  0.95591643  0.98559437  0.42736190    -0.82200
O379        O  0.03073077  0.07514617  0.46220866    -0.80600
C380        C  0.99540103  0.99589236  0.55318042     0.87600
O381        O  0.02660336  0.03983372  0.50747615    -0.87700
O382        O  0.04802801  0.99217104  0.51960052    -0.87800
O383        O  0.06289324  0.00237913  0.48475032    -0.74900
Mg384      Mg  0.97061002  0.96005074  0.52479577     1.58000
O385        O  0.02022300  0.92757843  0.55534681    -0.82200
H386        H  0.94287586  0.02464854  0.49502834    -0.06000
O387        O  0.01596915  0.01944530  0.45913283    -0.87500
H388        H  0.03744971  0.00323481  0.43562539    -0.05800
H389        H  0.00910155  0.06349541  0.52772991    -0.06000
C390        C  0.02124001  0.00233593  0.44608836     0.87600
C391        C  0.95421167  0.00907216  0.49576546     0.88200
C392        C  0.00917188  0.05280344  0.51169971     0.88200
H393        H  0.07308528  0.97282984  0.50300934    -0.05900
O394        O  0.02521216  0.94390347  0.50179805    -0.75000
Mg395      Mg  0.04538581  0.03821559  0.47426122     1.58000
H396        H  0.00706018  0.93343040  0.47230736    -0.06000
C397        C  0.96016172  0.00443532  0.41543229     0.93200
O398        O  0.99488827  0.07110881  0.44527360    -0.82200
C399        C  0.01301536  0.08375902  0.45074957     0.93300
O400        O  0.93820824  0.94147451  0.50926134    -0.82200
Mg401      Mg  0.03418201  0.96142168  0.53777563     1.58200
O402        O  0.97072450  0.02249825  0.42453766    -0.80500
O403        O  0.06238072  0.01123338  0.57134426    -0.82200
O404        O  0.02555164  0.02818530  0.97365477    -0.87800
C405        C  0.95509547  0.01216376  0.97129773     0.88200
Mg406      Mg  0.05286829  0.00198372  0.96900750     1.58100
O407        O  0.97769073  0.02466695  0.02791863    -0.87500
O408        O  0.01483719  0.05577105  0.99929598    -0.74900
C409        C  0.01948492  0.91224414  0.04021720     0.93300
O410        O  0.99886792  0.98772093  0.94343325    -0.74700
O411        O  0.03187791  0.91617295  0.02150777    -0.82200
Mg412      Mg  0.99765898  0.02861958  0.94753798     1.58000
C413        C  0.96136049  0.98416839  0.08579748     0.93200
O414        O  0.99625984  0.06956284  0.94801758    -0.80400
H415        H  0.99485606  0.04643847  0.05037130    -0.05800
C416        C  0.97272434  0.95378453  0.01106534     0.88100
O417        O  0.05754522  0.99902747  0.00964592    -0.75000
O418        O  0.97211292  0.02574009  0.97534623    -0.87700
O419        O  0.95204071  0.99611846  0.06890177    -0.80500
C420        C  0.91649406  0.04295535  0.01845685     0.93300
C421        C  0.98472580  0.08678644  0.95742763     0.93200
Mg422      Mg  0.00523184  0.97050559  0.05068102     1.58000
O423        O  0.00765941  0.92884764  0.05064367    -0.80500
O424        O  0.00399366  0.01156935  0.05387033    -0.74700
O425        O  0.93288970  0.05339946  0.00652829    -0.80500
O426        O  0.02344412  0.03109089  0.91700143    -0.82200
O427        O  0.07068462  0.94601399  0.98997359    -0.80600
C428        C  0.99199900  0.02835700  0.04436022     0.87600
O429        O  0.03102730  0.97312824  0.02244751    -0.87700
O430        O  0.97767031  0.97080530  0.02427981    -0.87800
O431        O  0.98851606  0.94355102  0.99829566    -0.74900
Mg432      Mg  0.97392412  0.05280282  0.00247386     1.58000
O433        O  0.92046613  0.02424650  0.03064447    -0.82200
H434        H  0.04901608  0.05084677  0.98816221    -0.06000
O435        O  0.02569262  0.97469450  0.96883853    -0.87500
H436        H  0.00859209  0.95295542  0.94629664    -0.05800
H437        H  0.05493929  0.98836190  0.04411382    -0.06000
C438        C  0.01126574  0.97100201  0.95250726     0.87600
C439        C  0.03062374  0.04521884  0.98679655     0.88200
C440        C  0.04819005  0.98658222  0.02617031     0.88200
H441        H  0.95437022  0.94792174  0.00981365    -0.05900
O442        O  0.94580628  0.99930561  0.98753621    -0.75000
Mg443      Mg  0.02942008  0.94665507  0.99470380     1.58000
H444        H  0.94860200  0.01047970  0.95326424    -0.06000
C445        C  0.04215623  0.01919185  0.91225417     0.93200
O446        O  0.08281158  0.97505178  0.96550235    -0.82200
C447        C  0.08692381  0.95629381  0.97760565     0.93300
O448        O  0.97161500  0.08353429  0.97576158    -0.82200
Mg449      Mg  0.95059343  0.99749480  0.02808925     1.58200
O450        O  0.05256162  0.00630520  0.92787643    -0.80500
O451        O  0.97843140  0.96957433  0.08176879    -0.82200
O452        O  0.51800060  0.97891661  0.46525761    -0.87800
C453        C  0.45255214  0.98417611  0.49787118     0.88200
Mg454      Mg  0.54847041  0.96232376  0.48134182     1.58100
O455        O  0.48684712  0.03674072  0.49706094    -0.87500
O456        O  0.50811762  0.01363614  0.45018791    -0.74900
C457        C  0.54610102  0.99927268  0.59349813     0.93300
O458        O  0.49355717  0.94165091  0.50114420    -0.74700
O459        O  0.55581659  0.98380515  0.58007423    -0.82200
Mg460      Mg  0.48520868  0.95901587  0.46514960     1.58000
C461        C  0.49443205  0.07818044  0.55760993     0.93200
O462        O  0.47463458  0.97242497  0.42764630    -0.80400
H463        H  0.50537024  0.06204325  0.47988400    -0.05800
C464        C  0.48941636  0.99617308  0.55686142     0.88100
O465        O  0.56205409  0.99870711  0.49450051    -0.75000
O466        O  0.46785063  0.98867893  0.48251341    -0.87700
O467        O  0.47949959  0.07041544  0.54223649    -0.80500
C468        C  0.42302268  0.04694731  0.49343639     0.93300
C469        C  0.46204229  0.98902577  0.41851282     0.93200
Mg470      Mg  0.52718113  0.03300690  0.54753447     1.58000
O471        O  0.53380897  0.01632875  0.58480243    -0.80500
O472        O  0.52038965  0.05167446  0.51117990    -0.74700
O473        O  0.43197382  0.03418610  0.47669310    -0.80500
O474        O  0.50318921  0.92691709  0.44804329    -0.82200
O475        O  0.58057028  0.96077517  0.53495591    -0.80600
C476        C  0.50404535  0.05065413  0.49534732     0.87600
O477        O  0.54461794  0.00473567  0.52907566    -0.87700
O478        O  0.49452989  0.01401980  0.54483895    -0.87800
O479        O  0.50359161  0.97846704  0.55858021    -0.74900
Mg480      Mg  0.47076546  0.02262463  0.46501709     1.58000
O481        O  0.43466996  0.05202682  0.51219958    -0.82200
H482        H  0.53882567  0.99617525  0.44193224    -0.06000
O483        O  0.52770552  0.95680413  0.51297057    -0.87500
H484        H  0.51091687  0.93094601  0.53096703    -0.05800
H485        H  0.56891873  0.02724170  0.51569971    -0.06000
C486        C  0.51105925  0.94245255  0.51551784     0.87600
C487        C  0.52229015  0.99597555  0.45190303     0.88200
C488        C  0.55912443  0.01078965  0.51349450     0.88200
H489        H  0.47230443  0.99540495  0.56571773    -0.05900
O490        O  0.44958411  0.99751878  0.51605211    -0.75000
Mg491      Mg  0.54187129  0.97041804  0.54521359     1.58000
H492        H  0.44175747  0.96830092  0.49602407    -0.06000
C493        C  0.52231624  0.91590546  0.45357135     0.93200
O494        O  0.58185521  0.94644023  0.49782563    -0.82200
C495        C  0.59169437  0.95078921  0.51780784     0.93300
O496        O  0.45566765  0.00747104  0.43029451    -0.82200
Mg497      Mg  0.46595566  0.03327491  0.52873075     1.58200
O498        O  0.53833869  0.92518020  0.46680780    -0.80500
O499        O  0.51007047  0.06428422  0.56625098    -0.82200
C500        C  0.25785550  0.12748371  0.50262916    -0.01900
O501        O  0.52710834  0.02339356  0.97577658    -0.87800
C502        C  0.52491873  0.95260512  0.99155009     0.88200
Mg503      Mg  0.53337066  0.05063368  0.00137303     1.58100
O504        O  0.46874313  0.97777573  0.98039407    -0.87500
O505        O  0.49925218  0.01387785  0.94985833    -0.74900
C506        C  0.46116634  0.02224403  0.09159842     0.93300
O507        O  0.55606595  0.99533580  0.01616678    -0.74700
O508        O  0.48021411  0.03395175  0.08730180    -0.82200
Mg509      Mg  0.55160311  0.99400135  0.97542704     1.58000
C510        C  0.41119657  0.96491058  0.02395375     0.93200
O511        O  0.54990610  0.99277350  0.93500369    -0.80400
H512        H  0.44637392  0.99517864  0.95878686    -0.05800
C513        C  0.48749703  0.97297206  0.05032448     0.88100
O514        O  0.49284786  0.05744722  0.00430243    -0.75000
O515        O  0.52180056  0.97019933  0.97859278    -0.87700
O516        O  0.42670046  0.95393253  0.01129698    -0.80500
C517        C  0.47418788  0.91608915  0.96068134     0.93300
C518        C  0.53870082  0.98356184  0.91754340     0.93200
Mg519      Mg  0.44914786  0.00750136  0.03408454     1.58000
O520        O  0.45019763  0.01062075  0.07531398    -0.80500
O521        O  0.44441675  0.00568135  0.99337238    -0.74700
O522        O  0.48770346  0.93196197  0.95119681    -0.80500
O523        O  0.58443226  0.01807308  0.97267965    -0.82200
O524        O  0.51273357  0.07030191  0.05635015    -0.80600
C525        C  0.45280545  0.99265636  0.97674525     0.87600
O526        O  0.47885578  0.03155645  0.03015022    -0.87700
O527        O  0.47385196  0.97800780  0.03369711    -0.87800
O528        O  0.50095823  0.98854956  0.06004165    -0.74900
Mg529      Mg  0.49403000  0.97322794  0.95220088     1.58000
O530        O  0.46231296  0.92083088  0.97955117    -0.82200
H531        H  0.51242170  0.04738189  0.95391672    -0.06000
O532        O  0.53213625  0.02382710  0.02875828    -0.87500
H533        H  0.55385179  0.00600032  0.05068542    -0.05800
H534        H  0.45816211  0.05632449  0.01496916    -0.06000
C535        C  0.54772794  0.00861209  0.03264375     0.87600
C536        C  0.51324634  0.02896405  0.95950867     0.88200
C537        C  0.47585054  0.04880509  0.01670306     0.88200
H538        H  0.48841411  0.95470337  0.05639495    -0.05900
O539        O  0.50807142  0.94374107  0.00398078    -0.75000
Mg540      Mg  0.50649648  0.02931269  0.05660865     1.58000
H541        H  0.54260874  0.94501658  0.99288728    -0.06000
C542        C  0.59004564  0.03622600  0.98515578     0.93200
O543        O  0.53829582  0.08090268  0.02758656    -0.82200
C544        C  0.52575777  0.08585203  0.04588052     0.93300
O545        O  0.51990463  0.97100896  0.92065053    -0.82200
Mg546      Mg  0.46767059  0.95066275  0.00722786     1.58200
O547        O  0.57454727  0.04753711  0.99753977    -0.80500
O548        O  0.41667758  0.98283110  0.03689071    -0.82200
C549        C  0.49912074  0.24931871  0.12394064    -0.01900
O550        O  0.52626451  0.53941376  0.01566526    -0.87800
C551        C  0.51258810  0.50792915  0.95155134     0.88200
Mg552      Mg  0.54319287  0.52051410  0.04429741     1.58100
O553        O  0.46156966  0.51397586  0.98773406    -0.87500
O554        O  0.49168241  0.55686636  0.00918330    -0.74900
C555        C  0.48839809  0.41501215  0.04894181     0.93300
O556        O  0.55641580  0.49925873  0.98826804    -0.74700
O557        O  0.50751376  0.42581820  0.05473176    -0.82200
Mg558      Mg  0.54329774  0.53755996  0.98126958     1.58000
C559        C  0.41383605  0.45786859  0.99623457     0.93200
O560        O  0.53336904  0.57693596  0.97176464    -0.80400
H561        H  0.43896878  0.53446513  0.00633814    -0.05800
C562        C  0.49387621  0.44902511  0.98925102     0.88100
O563        O  0.50631734  0.51220192  0.06082004    -0.75000
O564        O  0.51052000  0.52398456  0.96661584    -0.87700
O565        O  0.42295797  0.47077883  0.97976928    -0.80500
C566        C  0.45024913  0.52029353  0.92461824     0.93300
C567        C  0.51612214  0.58820453  0.96195443     0.93200
Mg568      Mg  0.46083899  0.46490160  0.02917556     1.58000
O569        O  0.47157312  0.42566870  0.03787457    -0.80500
O570        O  0.44675120  0.50290638  0.02226301    -0.74700
O571        O  0.46425577  0.53564252  0.93412606    -0.80500
O572        O  0.57890758  0.55019204  0.99636921    -0.82200
O573        O  0.53821229  0.46782037  0.07683900    -0.80600
C574        C  0.44854112  0.51777513  0.00521296     0.87600
O575        O  0.49309776  0.47938166  0.04387555    -0.87700
O576        O  0.47812527  0.46348585  0.99498983    -0.87800
O577        O  0.51229096  0.44557635  0.00209068    -0.74900
Mg578      Mg  0.47868111  0.54466185  0.97221049     1.58000
O579        O  0.44367018  0.50143116  0.93547049    -0.82200
H580        H  0.51209079  0.56300244  0.03840222    -0.06000
O581        O  0.54201463  0.48867737  0.02312829    -0.87500
H582        H  0.56381603  0.46761212  0.00420420    -0.05800
H583        H  0.47502788  0.49610812  0.06976521    -0.06000
C584        C  0.55463906  0.48453797  0.00543668     0.87600
C585        C  0.51039626  0.55365925  0.02165235     0.88200
C586        C  0.49085622  0.49564159  0.05870198     0.88200
H587        H  0.49227190  0.43957505  0.97254627    -0.05900
O588        O  0.49731440  0.49117852  0.94964437    -0.75000
Mg589      Mg  0.52474628  0.45852066  0.03906999     1.58000
H590        H  0.52815376  0.50776888  0.94013507    -0.06000
C591        C  0.59063170  0.54329027  0.01456379     0.93200
O592        O  0.55993763  0.50120901  0.07587762    -0.82200
C593        C  0.55238560  0.48266931  0.08666496     0.93300
O594        O  0.49599823  0.57837030  0.95780197    -0.82200
Mg595      Mg  0.46081213  0.48212390  0.96652354     1.58200
O596        O  0.58119467  0.53079070  0.03111851    -0.80500
O597        O  0.42591544  0.45119148  0.01423846    -0.82200
O598        O  0.97290445  0.52888458  0.51301843    -0.87800
C599        C  0.04393523  0.51260428  0.51445453     0.88200
Mg600      Mg  0.94524840  0.50244819  0.51603566     1.58100
O601        O  0.02192845  0.52726783  0.45789633    -0.87500
O602        O  0.98455658  0.55689155  0.48818360    -0.74900
C603        C  0.97959743  0.41531886  0.44319938     0.93300
O604        O  0.99921086  0.48700401  0.54136546    -0.74700
O605        O  0.96654744  0.41923310  0.46134465    -0.82200
Mg606      Mg  0.00076493  0.52797358  0.53921811     1.58000
C607        C  0.03720078  0.48778966  0.39846737     0.93200
O608        O  0.00285439  0.56905978  0.54089327    -0.80400
H609        H  0.00473624  0.54974797  0.43622188    -0.05800
C610        C  0.02606397  0.45626711  0.47311474     0.88100
O611        O  0.94122188  0.50156855  0.47523057    -0.75000
O612        O  0.02679853  0.52619156  0.51112964    -0.87700
O613        O  0.04755630  0.49893808  0.41545855    -0.80500
C614        C  0.08354329  0.54538657  0.46806098     0.93300
C615        C  0.01451411  0.58647338  0.53191698     0.93200
Mg616      Mg  0.99362047  0.47382730  0.43372364     1.58000
O617        O  0.99162232  0.43187141  0.43293215    -0.80500
O618        O  0.99522486  0.51502477  0.43179667    -0.74700
O619        O  0.06718816  0.55518610  0.48073214    -0.80500
O620        O  0.97421567  0.52879019  0.56982199    -0.82200
O621        O  0.92765271  0.44802067  0.49164444    -0.80600
C622        C  0.00748824  0.53146705  0.44169078     0.87600
O623        O  0.96790328  0.47607065  0.46188587    -0.87700
O624        O  0.02154158  0.47336953  0.45988211    -0.87800
O625        O  0.00993115  0.44595559  0.48542462    -0.74900
Mg626      Mg  0.02556660  0.55423454  0.48497719     1.58000
O627        O  0.07933442  0.52718555  0.45504154    -0.82200
H628        H  0.95009883  0.55219545  0.49859918    -0.06000
O629        O  0.97240034  0.47551560  0.51519724    -0.87500
H630        H  0.98891281  0.45254598  0.53687000    -0.05800
H631        H  0.94458900  0.49234370  0.44038435    -0.06000
C632        C  0.98658512  0.47090508  0.53147720     0.87600
C633        C  0.96839297  0.54627244  0.50017407     0.88200
C634        C  0.95090172  0.48977103  0.45838592     0.88200
H635        H  0.04436407  0.45035754  0.47477707    -0.05900
O636        O  0.05350362  0.50084662  0.49750767    -0.75000
Mg637      Mg  0.96891055  0.44875168  0.48846058     1.58000
H638        H  0.05046303  0.51008703  0.53238487    -0.06000
C639        C  0.95590234  0.51587078  0.57374907     0.93200
O640        O  0.91483671  0.47525706  0.51757955    -0.82200
C641        C  0.91095952  0.45729355  0.50414197     0.93300
O642        O  0.02743173  0.58381740  0.51330035    -0.82200
Mg643      Mg  0.04894747  0.50003741  0.45673443     1.58200
O644        O  0.94566418  0.50385556  0.55732314    -0.80500
O645        O  0.01960709  0.47381843  0.40237277    -0.82200
O646        O  0.02599097  0.47696514  0.01426194    -0.87800
C647        C  0.03075376  0.54734160  0.99785719     0.88200
Mg648      Mg  0.02826492  0.44898053  0.98853498     1.58100
O649        O  0.97308361  0.52672952  0.01104115    -0.87500
O650        O  0.00138488  0.48892235  0.04221604    -0.74900
C651        C  0.95713339  0.48189584  0.90035252     0.93300
O652        O  0.05554683  0.50165463  0.97259573    -0.74700
O653        O  0.97544519  0.46910548  0.90433493    -0.82200
Mg654      Mg  0.05328547  0.50371120  0.01355380     1.58000
C655        C  0.91583937  0.54445265  0.96875113     0.93200
O656        O  0.05443700  0.50609370  0.05467841    -0.80400
H657        H  0.94975099  0.51142636  0.03334666    -0.05800
C658        C  0.98959065  0.52936513  0.93975920     0.88100
O659        O  0.98729279  0.44593870  0.98770669    -0.75000
O660        O  0.02634304  0.53047705  0.01142418    -0.87700
O661        O  0.93264963  0.55387352  0.98092411    -0.80500
C662        C  0.98373851  0.58737285  0.02987477     0.93300
C663        C  0.04545451  0.51810817  0.07186406     0.93200
Mg664      Mg  0.94862674  0.49890578  0.95780477     1.58000
O665        O  0.94764163  0.49489540  0.91654960    -0.80500
O666        O  0.94552796  0.50163486  0.99875434    -0.74700
O667        O  0.99559757  0.57071627  0.03988980    -0.80500
O668        O  0.08284769  0.47635485  0.01473026    -0.82200
O669        O  0.00372314  0.43057592  0.93495072    -0.80600
C670        C  0.95584521  0.51346379  0.01517903     0.87600
O671        O  0.97545757  0.47222886  0.96125210    -0.87700
O672        O  0.97637851  0.52558414  0.95710055    -0.87800
O673        O  0.00112055  0.51260639  0.92958366    -0.74900
Mg674      Mg  0.99938598  0.52971578  0.03878033     1.58000
O675        O  0.97216197  0.58401844  0.01059273    -0.82200
H676        H  0.01146475  0.45440075  0.03779117    -0.06000
O677        O  0.02868826  0.47539242  0.96100914    -0.87500
H678        H  0.05102077  0.49141312  0.93818284    -0.05800
H679        H  0.95269412  0.45019925  0.97779704    -0.06000
C680        C  0.04540006  0.48923660  0.95648972     0.87600
C681        C  0.01320112  0.47262874  0.03173589     0.88200
C682        C  0.97101597  0.45579483  0.97535337     0.88200
H683        H  0.99183502  0.54742296  0.93347418    -0.05900
O684        O  0.01459511  0.55703997  0.98526260    -0.75000
Mg685      Mg  0.00239200  0.47170487  0.93397929     1.58000
H686        H  0.04900892  0.55337039  0.99597692    -0.06000
C687        C  0.08626788  0.45848577  0.00113027     0.93200
O688        O  0.02904447  0.41768673  0.96259448    -0.82200
C689        C  0.01517343  0.41373124  0.94505431     0.93300
O690        O  0.02724444  0.53144696  0.06867659    -0.82200
Mg691      Mg  0.97376351  0.55353452  0.98345824     1.58200
O692        O  0.06921441  0.44906902  0.98936794    -0.80500
O693        O  0.91921225  0.52642841  0.95534927    -0.82200
C694        C  0.12524093  0.50291215  0.23815991    -0.01900
O695        O  0.51974795  0.53035257  0.47996133    -0.87800
C696        C  0.44851479  0.51570179  0.47885256     0.88200
Mg697      Mg  0.54599275  0.50297062  0.47557260     1.58100
O698        O  0.47104964  0.52669006  0.53602494    -0.87500
O699        O  0.50932345  0.55670447  0.50717287    -0.74900
C700        C  0.50679794  0.41328959  0.54423747     0.93300
O701        O  0.49199214  0.49079767  0.44908061    -0.74700
O702        O  0.51951756  0.41710175  0.52576186    -0.82200
Mg703      Mg  0.49168254  0.53153453  0.45395685     1.58000
C704        C  0.45381753  0.48433785  0.59370908     0.93200
O705        O  0.49078339  0.57252942  0.45533968    -0.80400
H706        H  0.48866909  0.54768870  0.55888391    -0.05800
C707        C  0.46313888  0.45764221  0.51679702     0.88100
O708        O  0.54968525  0.49959395  0.51633381    -0.75000
O709        O  0.46619172  0.52853956  0.48255271    -0.87700
O710        O  0.44400017  0.49751752  0.57788706    -0.80500
C711        C  0.41017008  0.54680432  0.52614457     0.93300
C712        C  0.48028508  0.58970897  0.46602038     0.93200
Mg713      Mg  0.49669041  0.47161113  0.55709109     1.58000
O714        O  0.49666454  0.43033443  0.55552459    -0.80500
O715        O  0.49699762  0.51254042  0.56171570    -0.74700
O716        O  0.42690103  0.55617605  0.51370770    -0.80500
O717        O  0.51797682  0.53341528  0.42265547    -0.82200
O718        O  0.56100054  0.44635551  0.49736362    -0.80600
C719        C  0.48541459  0.52978357  0.55253112     0.87600
O720        O  0.52207719  0.47444252  0.52861106    -0.87700
O721        O  0.46859061  0.47339785  0.53135706    -0.87800
O722        O  0.47857908  0.44775016  0.50331289    -0.74900
Mg723      Mg  0.46828686  0.55493355  0.51035514     1.58000
O724        O  0.41390316  0.52899160  0.53970325    -0.82200
H725        H  0.54344550  0.55189840  0.49577047    -0.06000
O726        O  0.51775771  0.47708998  0.47510984    -0.87500
H727        H  0.50113819  0.45586554  0.45173915    -0.05800
H728        H  0.54614593  0.48882166  0.55069342    -0.06000
C729        C  0.50385121  0.47379227  0.45827847     0.87600
C730        C  0.52495123  0.54662391  0.49403944     0.88200
C731        C  0.53962727  0.48734553  0.53263036     0.88200
H732        H  0.44455039  0.45276263  0.51488043    -0.05900
O733        O  0.43837945  0.50393611  0.49548273    -0.75000
Mg734      Mg  0.51962032  0.44862997  0.50040678     1.58000
H735        H  0.44184325  0.51399945  0.46089272    -0.06000
C736        C  0.53578732  0.51999231  0.41794983     0.93200
O737        O  0.57505687  0.47456504  0.47301115    -0.82200
C738        C  0.57815997  0.45591131  0.48567128     0.93300
O739        O  0.46724317  0.58625260  0.48435908    -0.82200
Mg740      Mg  0.44275538  0.50088450  0.53632784     1.58200
O741        O  0.54563424  0.50708779  0.43401526    -0.80500
O742        O  0.47086429  0.47016355  0.58852260    -0.82200
C743        C  0.99841377  0.74662077  0.62287229    -0.01900
O744        O  0.27112033  0.77451719  0.78444536    -0.87800
C745        C  0.25515827  0.70411575  0.78927368     0.88200
Mg746      Mg  0.24399154  0.80111605  0.78618433     1.58100
O747        O  0.26912369  0.72285602  0.73138847    -0.87500
O748        O  0.29846503  0.76243557  0.75898572    -0.74900
C749        C  0.15755564  0.76199554  0.71349607     0.93300
O750        O  0.22953181  0.74922583  0.81430505    -0.74700
O751        O  0.16074584  0.77589161  0.73120329    -0.82200
Mg752      Mg  0.27071295  0.74822519  0.81197394     1.58000
C753        C  0.22929916  0.70255991  0.67315895     0.93200
O754        O  0.31219993  0.74693880  0.81309519    -0.80400
H755        H  0.29185254  0.73802697  0.70836743    -0.05800
C756        C  0.19842280  0.71778409  0.74685737     0.88100
O757        O  0.24328169  0.80298048  0.74506864    -0.75000
O758        O  0.26857797  0.72122438  0.78502619    -0.87700
O759        O  0.24134580  0.69341928  0.69022737    -0.80500
C760        C  0.28848941  0.66275251  0.74611500     0.93300
C761        C  0.32922318  0.73496992  0.80370712     0.93200
Mg762      Mg  0.21606914  0.74827345  0.70577110     1.58000
O763        O  0.17453310  0.74966939  0.70450478    -0.80500
O764        O  0.25714774  0.74721251  0.70324182    -0.74700
O765        O  0.29695426  0.68032890  0.75788077    -0.80500
O766        O  0.27140272  0.77608647  0.84140544    -0.82200
O767        O  0.19001502  0.81697613  0.75960260    -0.80600
C768        C  0.27351868  0.73580562  0.71404606     0.87600
O769        O  0.21818192  0.77540161  0.73263819    -0.87700
O770        O  0.21555439  0.72179291  0.73337978    -0.87800
O771        O  0.18789062  0.73440910  0.75829253    -0.74900
Mg772      Mg  0.29605843  0.72145403  0.75839499     1.58000
O773        O  0.27107344  0.66550928  0.73175166    -0.82200
H774        H  0.29364620  0.79710778  0.76835447    -0.06000
O775        O  0.21736972  0.77362038  0.78621678    -0.87500
H776        H  0.19472784  0.75796280  0.80899895    -0.05800
H777        H  0.23469097  0.79784168  0.71028425    -0.06000
C778        C  0.21305569  0.76045314  0.80342973     0.87600
C779        C  0.28806848  0.77881409  0.77084364     0.88200
C780        C  0.23186524  0.79234006  0.72853426     0.88200
H781        H  0.19268076  0.69956030  0.74950452    -0.05900
O782        O  0.24380750  0.69326147  0.77284031    -0.75000
Mg783      Mg  0.19046269  0.77551246  0.75899512     1.58000
H784        H  0.25250427  0.69865626  0.80754485    -0.06000
C785        C  0.25736608  0.79362104  0.84500856     0.93200
O786        O  0.21649364  0.83058850  0.78601507    -0.82200
C787        C  0.19929999  0.83402603  0.77158758     0.93300
O788        O  0.32587978  0.72139110  0.78579154    -0.82200
Mg789      Mg  0.24286727  0.69498320  0.73176289     1.58200
O790        O  0.24502108  0.80246081  0.82796683    -0.80500
O791        O  0.21567172  0.72049426  0.67636229    -0.82200
C792        C  0.49646596  0.75018901  0.88037956    -0.01900
C793        C  0.38819312  0.76147375  0.82589305    -0.04900
C794        C  0.40129440  0.74068155  0.83153194     0.09200
C795        C  0.39059596  0.71804862  0.82809298    -0.02300
C796        C  0.36699737  0.71622645  0.81931184    -0.00600
C797        C  0.35382776  0.73701382  0.81374479    -0.04200
C798        C  0.36456891  0.75968468  0.81708961     0.02800
C799        C  0.42554169  0.74280124  0.84302487     0.09700
C800        C  0.40363650  0.69645447  0.83376199     0.35600
C801        C  0.35153398  0.78121706  0.81099137     0.39000
C802        C  0.42718765  0.74394474  0.86787555    -0.04500
C803        C  0.44965940  0.74574267  0.87923123     0.02600
C804        C  0.47188324  0.74704880  0.86582900    -0.04100
C805        C  0.46936310  0.74698012  0.84015166    -0.00400
C806        C  0.44649075  0.74446882  0.82925400    -0.02900
C807        C  0.40531936  0.74282660  0.88196897     0.36300
C808        C  0.48911510  0.75126541  0.82394650     0.39900
C809        C  0.44920660  0.74398349  0.90507982     0.39100
C810        C  0.44420945  0.74431423  0.80344408     0.36000
C811        C  0.39910135  0.78475056  0.82928657     0.36700
C812        C  0.35589069  0.69288124  0.81700071     0.39900
N813        N  0.44726725  0.74200746  0.92553583    -0.38100
N814        N  0.38790808  0.74193960  0.89313907    -0.39700
N815        N  0.50399924  0.75503015  0.81004183    -0.37500
N816        N  0.44226902  0.74430611  0.78289943    -0.39900
N817        N  0.41338404  0.67874076  0.83797482    -0.39600
N818        N  0.34699661  0.67427991  0.81529092    -0.37300
N819        N  0.34111369  0.79838768  0.80614356    -0.38300
N820        N  0.40791921  0.80326864  0.83198336    -0.40000
C821        C  0.09525300  0.73839649  0.69895681    -0.04900
C822        C  0.08701301  0.75548093  0.68228002     0.09200
C823        C  0.10158097  0.77565244  0.67731356    -0.02300
C824        C  0.12466084  0.77765146  0.68741386    -0.00600
C825        C  0.13321161  0.75995828  0.70306504    -0.04200
C826        C  0.11828543  0.74053738  0.70913176     0.02800
C827        C  0.06354519  0.75156666  0.66939418     0.09700
C828        C  0.09290058  0.79484775  0.66236863     0.35600
C829        C  0.12661768  0.72281500  0.72602554     0.39000
C830        C  0.04343424  0.76577294  0.67430406    -0.04500
C831        C  0.02208057  0.76328800  0.66073531     0.02600
C832        C  0.01991123  0.74555868  0.64204008    -0.04100
C833        C  0.03893751  0.72820504  0.64153449    -0.00400
C834        C  0.06103049  0.73258772  0.65312419    -0.02900
C835        C  0.04494745  0.78340301  0.69329169     0.36300
C836        C  0.03571723  0.70408340  0.63289016     0.39900
C837        C  0.00301997  0.77979432  0.66653904     0.39100
C838        C  0.08145351  0.71726517  0.64823335     0.36000
C839        C  0.07978799  0.71879817  0.70598302     0.36700
C840        C  0.13988718  0.79777405  0.68135629     0.39900
N841        N  0.98878634  0.79340191  0.67288538    -0.38100
N842        N  0.04620337  0.79743179  0.70841945    -0.39700
N843        N  0.03413718  0.68432599  0.62703927    -0.37500
N844        N  0.09772059  0.70508209  0.64434873    -0.39900
N845        N  0.08648303  0.81085817  0.65102730    -0.39600
N846        N  0.15207427  0.81376080  0.67645293    -0.37300
N847        N  0.13328032  0.70871599  0.73954061    -0.38300
N848        N  0.06739575  0.70319886  0.71157230    -0.40000
C849        C  0.05212100  0.51309676  0.13994227    -0.04900
C850        C  0.07665070  0.50777604  0.14226426     0.09200
C851        C  0.09102239  0.50630089  0.12157601    -0.02300
C852        C  0.08117789  0.51086216  0.09884209    -0.00600
C853        C  0.05639146  0.51583729  0.09627656    -0.04200
C854        C  0.04203577  0.51725791  0.11719320     0.02800
C855        C  0.08812841  0.50657958  0.16654308     0.09700
C856        C  0.11616630  0.50023325  0.12379142     0.35600
C857        C  0.01680601  0.52307971  0.11562865     0.39000
C858        C  0.08657098  0.48605755  0.18075048    -0.04500
C859        C  0.09790365  0.48506666  0.20343445     0.02600
C860        C  0.11212677  0.50471938  0.21249954    -0.04100
C861        C  0.11544974  0.52422935  0.19570422    -0.00400
C862        C  0.10198201  0.52580488  0.17444410    -0.02900
C863        C  0.07273900  0.46589069  0.17200424     0.36300
C864        C  0.13469518  0.54151852  0.19700361     0.39900
C865        C  0.09334968  0.46365998  0.21723524     0.39100
C866        C  0.10330870  0.54718112  0.15967175     0.36000
C867        C  0.03714101  0.51424409  0.16105461     0.36700
C868        C  0.09708370  0.51182942  0.07836116     0.39900
N869        N  0.08841461  0.44601138  0.22678824    -0.38100
N870        N  0.06164576  0.44987238  0.16506149    -0.39700
N871        N  0.14997032  0.55546142  0.19669494    -0.37500
N872        N  0.10441453  0.56407606  0.14784451    -0.39900
N873        N  0.13618702  0.49534031  0.12561073    -0.39600
N874        N  0.10989718  0.51281657  0.06214706    -0.37300
N875        N  0.99673480  0.52799327  0.11450793    -0.38300
N876        N  0.02493652  0.51496886  0.17773299    -0.40000
C877        C  0.00640042  0.65391426  0.54092899    -0.04900
C878        C  0.00697767  0.65597090  0.56608172     0.09200
C879        C  0.00988755  0.63505825  0.57992659    -0.02300
C880        C  0.01254460  0.61252567  0.56882726    -0.00600
C881        C  0.01264573  0.61050968  0.54361728    -0.04200
C882        C  0.00957681  0.63143630  0.52976273     0.02800
C883        C  0.00347602  0.67993515  0.57810329     0.09700
C884        C  0.00950782  0.63649955  0.60576904     0.35600
C885        C  0.00847563  0.62980224  0.50395703     0.39000
C886        C  0.98245193  0.68466425  0.59093256    -0.04500
C887        C  0.97927822  0.70665212  0.60315869     0.02600
C888        C  0.99836600  0.72411166  0.60480753    -0.04100
C889        C  0.01763103  0.72036306  0.58801903    -0.00400
C890        C  0.02050979  0.69827116  0.57579937    -0.02900
C891        C  0.96328766  0.66702308  0.59048829     0.36300
C892        C  0.03498250  0.73868436  0.58236485     0.39900
C893        C  0.95469129  0.71180430  0.60944162     0.39100
C894        C  0.04171225  0.69404420  0.56134427     0.36000
C895        C  0.00158172  0.67484964  0.52649171     0.36700
C896        C  0.01532552  0.59142167  0.58359418     0.39900
N897        N  0.93450689  0.71488261  0.61280956    -0.38100
N898        N  0.94806082  0.65300625  0.59012295    -0.39700
N899        N  0.04920820  0.75216655  0.57572781    -0.37500
N900        N  0.05851892  0.69073964  0.54971518    -0.39900
N901        N  0.00883587  0.63725757  0.62638871    -0.39600
N902        N  0.01735279  0.57462824  0.59543780    -0.37300
N903        N  0.00759856  0.62849471  0.48337365    -0.38300
N904        N  0.99777320  0.69155243  0.51497157    -0.40000
C905        C  0.06792495  0.50266611  0.28166666    -0.04900
C906        C  0.07889045  0.50170366  0.30411341     0.09200
C907        C  0.10385077  0.50312747  0.30552847    -0.02300
C908        C  0.11809450  0.50373389  0.28466696    -0.00600
C909        C  0.10766500  0.50319656  0.26097360    -0.04200
C910        C  0.08176672  0.50395458  0.26035282     0.02800
C911        C  0.06448750  0.49900663  0.32671163     0.09700
C912        C  0.11511567  0.50264450  0.32893279     0.35600
C913        C  0.06809805  0.50766639  0.23880412     0.39000
C914        C  0.05501060  0.47653754  0.33327518    -0.04500
C915        C  0.04607874  0.47275284  0.35658790     0.02600
C916        C  0.04567641  0.49171617  0.37337708    -0.04100
C917        C  0.05303867  0.51480289  0.36588161    -0.00400
C918        C  0.06266233  0.51830201  0.34283380    -0.02900
C919        C  0.05436709  0.45718149  0.31608066     0.36300
C920        C  0.05013275  0.53525706  0.38156101     0.39900
C921        C  0.03820741  0.44899870  0.36338687     0.39100
C922        C  0.07109509  0.54177058  0.33571558     0.36000
C923        C  0.04193990  0.50285450  0.28067847     0.36700
C924        C  0.14366544  0.50188103  0.28871562     0.39900
N925        N  0.03194906  0.43002033  0.36871214    -0.38100
N926        N  0.05317729  0.44165215  0.30248630    -0.39700
N927        N  0.04770311  0.55160717  0.39399011    -0.37500
N928        N  0.07795930  0.56042463  0.33001559    -0.39900
N929        N  0.12403595  0.50231765  0.34753570    -0.39600
N930        N  0.16357241  0.50000836  0.29400637    -0.37300
N931        N  0.05597840  0.51121287  0.22247712    -0.38300
N932        N  0.02125735  0.50298669  0.27991231    -0.40000
C933        C  0.53469577  0.64386952  0.92746104    -0.04900
C934        C  0.51854632  0.66098621  0.93673720     0.09200
C935        C  0.50406555  0.65485495  0.95649917    -0.02300
C936        C  0.50418277  0.63130847  0.96551635    -0.00600
C937        C  0.51913095  0.61375448  0.95516754    -0.04200
C938        C  0.53514557  0.62039174  0.93681068     0.02800
C939        C  0.51329056  0.68351548  0.92298868     0.09700
C940        C  0.48789467  0.67248455  0.96652435     0.35600
C941        C  0.55093447  0.60262636  0.92645976     0.39000
C942        C  0.49281160  0.68428261  0.90876492    -0.04500
C943        C  0.48777946  0.70435576  0.89433738     0.02600
C944        C  0.50182121  0.72627749  0.89579478    -0.04100
C945        C  0.52350896  0.72413408  0.90969542    -0.00400
C946        C  0.52885605  0.70316801  0.92302248    -0.02900
C947        C  0.47734213  0.66325972  0.90793469     0.36300
C948        C  0.54063080  0.74353827  0.91159927     0.39900
C949        C  0.47013210  0.69940503  0.87607837     0.39100
C950        C  0.55042920  0.70185694  0.93732820     0.36000
C951        C  0.54975889  0.64999479  0.90728906     0.36700
C952        C  0.48844890  0.62496255  0.98512967     0.39900
N953        N  0.45644297  0.69407079  0.86157641    -0.38100
N954        N  0.46509192  0.64659252  0.90727901    -0.39700
N955        N  0.55490250  0.75828424  0.91427934    -0.37500
N956        N  0.56763884  0.70072282  0.94869623    -0.39900
N957        N  0.47490680  0.68656197  0.97434911    -0.39600
N958        N  0.47589240  0.61987597  0.00076149    -0.37300
N959        N  0.56349958  0.58839468  0.91823257    -0.38300
N960        N  0.56178637  0.65493394  0.89120478    -0.40000
C961        C  0.48439944  0.31655547  0.10790006    -0.04900
C962        C  0.48504456  0.31705554  0.08293647     0.09200
C963        C  0.48786273  0.29557869  0.07035322    -0.02300
C964        C  0.49177786  0.27364677  0.08249562    -0.00600
C965        C  0.49366131  0.27279843  0.10829831    -0.04200
C966        C  0.48823838  0.29503009  0.12048205     0.02800
C967        C  0.48443962  0.34073636  0.07023832     0.09700
C968        C  0.48640187  0.29620123  0.04445509     0.35600
C969        C  0.48945181  0.29752193  0.14623354     0.39000
C970        C  0.50564372  0.35008601  0.06019444    -0.04500
C971        C  0.50656242  0.37402204  0.05248146     0.02600
C972        C  0.48630808  0.38908468  0.05493011    -0.04100
C973        C  0.46464699  0.37927823  0.06368766    -0.00400
C974        C  0.46363754  0.35507254  0.07083367    -0.02900
C975        C  0.52679363  0.33521086  0.05806512     0.36300
C976        C  0.44381820  0.39437291  0.06695583     0.39900
C977        C  0.52860254  0.38306939  0.04208446     0.39100
C978        C  0.44133211  0.34497557  0.07944715     0.36000
C979        C  0.48147964  0.33893109  0.12089454     0.36700
C980        C  0.49192782  0.25266862  0.06729429     0.39900
N981        N  0.54621982  0.39029129  0.03394019    -0.38100
N982        N  0.54367233  0.32343569  0.05594650    -0.39700
N983        N  0.42723787  0.40643291  0.06975179    -0.37500
N984        N  0.42356537  0.33685868  0.08631774    -0.39900
N985        N  0.48529301  0.29674139  0.02385351    -0.39600
N986        N  0.49138289  0.23665872  0.05419029    -0.37300
N987        N  0.49043943  0.30167372  0.16643509    -0.38300
N988        N  0.47919083  0.35671653  0.13119730    -0.40000
C989        C  0.48586049  0.86410642  0.91752763    -0.04900
C990        C  0.47653568  0.84399038  0.92984161     0.09200
C991        C  0.46376788  0.84813114  0.95130514    -0.02300
C992        C  0.46322762  0.87125332  0.96182073    -0.00600
C993        C  0.47285790  0.89136129  0.94951610    -0.04200
C994        C  0.48191018  0.88748521  0.92619248     0.02800
C995        C  0.47910052  0.81899402  0.91932295     0.09700
C996        C  0.45041110  0.82877656  0.96223645     0.35600
C997        C  0.48461618  0.90740582  0.90989722     0.39000
C998        C  0.49008343  0.80005050  0.93181215    -0.04500
C999        C  0.49276443  0.77704786  0.92111029     0.02600
C1000       C  0.49052510  0.77400560  0.89558823    -0.04100
C1001       C  0.48044768  0.79445826  0.88336376    -0.00400
C1002       C  0.47161310  0.81446669  0.89590356    -0.02900
C1003       C  0.49878726  0.80410385  0.95585576     0.36300
C1004       C  0.48114964  0.79712101  0.85764417     0.39900
C1005       C  0.49588764  0.75746794  0.93761967     0.39100
C1006       C  0.45534867  0.83096545  0.88422030     0.36000
C1007       C  0.49949929  0.86110427  0.89565963     0.36700
C1008       C  0.45239145  0.87396294  0.98518823     0.39900
N1009       N  0.49769031  0.74265645  0.95190765    -0.38100
N1010       N  0.50567084  0.80725985  0.97505603    -0.39700
N1011       N  0.48158612  0.80113763  0.83740437    -0.37500
N1012       N  0.44229491  0.84399299  0.87493228    -0.39900
N1013       N  0.43966122  0.81339085  0.97093314    -0.39600
N1014       N  0.44372250  0.87598535  0.00385062    -0.37300
N1015       N  0.48568408  0.92333872  0.89681442    -0.38300
N1016       N  0.51021939  0.85903369  0.87809314    -0.40000
C1017       C  0.51099202  0.15194116  0.04942887    -0.04900
C1018       C  0.52055748  0.15810374  0.07186361     0.09200
C1019       C  0.53316769  0.14082452  0.08518505    -0.02300
C1020       C  0.53523676  0.11719032  0.07661304    -0.00600
C1021       C  0.52520762  0.11090212  0.05441272    -0.04200
C1022       C  0.51356499  0.12847886  0.04058569     0.02800
C1023       C  0.51427012  0.18155280  0.08318043     0.09700
C1024       C  0.54318962  0.14725731  0.10815607     0.35600
C1025       C  0.50310628  0.12208162  0.01778356     0.39000
C1026       C  0.49337304  0.18319587  0.09675993    -0.04500
C1027       C  0.48833100  0.20387627  0.11038444     0.02600
C1028       C  0.50300919  0.22528550  0.10853443    -0.04100
C1029       C  0.52418004  0.22281590  0.09378404    -0.00400
C1030       C  0.52963327  0.20121026  0.08170960    -0.02900
C1031       C  0.47751023  0.16250399  0.09770685     0.36300
C1032       C  0.54042687  0.24256582  0.08942109     0.39900
C1033       C  0.46981095  0.20018886  0.12812141     0.39100
C1034       C  0.55115257  0.19915855  0.06726802     0.36000
C1035       C  0.49741977  0.16944257  0.03606282     0.36700
C1036       C  0.54738098  0.09926378  0.09074739     0.39900
N1037       N  0.45522117  0.19570233  0.14208822    -0.38100
N1038       N  0.46501835  0.14602071  0.09841791    -0.39700
N1039       N  0.55402738  0.25734452  0.08443920    -0.37500
N1040       N  0.56826172  0.19751690  0.05572633    -0.39900
N1041       N  0.55115069  0.15254616  0.12645430    -0.39600
N1042       N  0.55701777  0.08493421  0.10205294    -0.37300
N1043       N  0.49474770  0.11692835  0.99962369    -0.38300
N1044       N  0.48642173  0.18333742  0.02547699    -0.40000
C1045       C  0.31710814  0.09578382  0.47700159    -0.04900
C1046       C  0.32613840  0.08462076  0.49730203     0.09200
C1047       C  0.31292250  0.08556401  0.51851088    -0.02300
C1048       C  0.29033816  0.09714800  0.51930078    -0.00600
C1049       C  0.28150425  0.11113898  0.49941820    -0.04200
C1050       C  0.29700242  0.11103447  0.47855935     0.02800
C1051       C  0.35099879  0.07438927  0.49657616     0.09700
C1052       C  0.32280068  0.07456907  0.53976928     0.35600
C1053       C  0.29619973  0.12839884  0.45953879     0.39000
C1054       C  0.37083920  0.09002092  0.49725726    -0.04500
C1055       C  0.39421801  0.08112479  0.49418217     0.02600
C1056       C  0.39819824  0.05633942  0.49171222    -0.04100
C1057       C  0.37837198  0.04066765  0.49067385    -0.00400
C1058       C  0.35481775  0.04971769  0.49289357    -0.02900
C1059       C  0.36720974  0.11536302  0.50128841     0.36300
C1060       C  0.38222577  0.01521992  0.48778070     0.39900
C1061       C  0.41418157  0.09762791  0.49248895     0.39100
C1062       C  0.33447629  0.03372735  0.49139732     0.36000
C1063       C  0.32992511  0.09283412  0.45452378     0.36700
C1064       C  0.27645972  0.09335127  0.54084759     0.39900
N1065       N  0.43004710  0.11082059  0.49080726    -0.38100
N1066       N  0.36449555  0.13557666  0.50465399    -0.39700
N1067       N  0.38534916  0.99491924  0.48539892    -0.37500
N1068       N  0.31819272  0.02100773  0.49020138    -0.39900
N1069       N  0.33073453  0.06596487  0.55675424    -0.39600
N1070       N  0.26661420  0.08884250  0.55845458    -0.37300
N1071       N  0.29733603  0.14172590  0.44383355    -0.38300
N1072       N  0.34012122  0.09034280  0.43670772    -0.40000
C1073       C  0.97878909  0.85593869  0.57539983    -0.04900
C1074       C  0.99919997  0.84112259  0.57337583     0.09200
C1075       C  0.02002594  0.85031200  0.56229987    -0.02300
C1076       C  0.02107511  0.87442376  0.55499924    -0.00600
C1077       C  0.00097544  0.88953061  0.55788225    -0.04200
C1078       C  0.97971343  0.88000756  0.56780391     0.02800
C1079       C  0.99966592  0.81650605  0.58430322     0.09700
C1080       C  0.04040601  0.83476443  0.55819367     0.35600
C1081       C  0.95897016  0.89523428  0.57118870     0.39000
C1082       C  0.98608324  0.79749131  0.57493748    -0.04500
C1083       C  0.98566881  0.77489487  0.58659178     0.02600
C1084       C  0.00116310  0.77002219  0.60655620    -0.04100
C1085       C  0.01880896  0.78811940  0.61102096    -0.00400
C1086       C  0.01541301  0.81168918  0.60317045    -0.02900
C1087       C  0.97221332  0.80134674  0.55343216     0.36300
C1088       C  0.04325617  0.78224168  0.61691137     0.39900
C1089       C  0.96868504  0.75755998  0.57767622     0.39100
C1090       C  0.02900728  0.83087881  0.61415928     0.36000
C1091       C  0.95663599  0.84659327  0.58511881     0.36700
C1092       C  0.04284283  0.88349055  0.54412504     0.39900
N1093       N  0.95477723  0.74483700  0.56916916    -0.38100
N1094       N  0.96123682  0.80441361  0.53623489    -0.39700
N1095       N  0.06318133  0.77768701  0.61996618    -0.37500
N1096       N  0.03971634  0.84616885  0.62305916    -0.39900
N1097       N  0.05661625  0.82231247  0.55499297    -0.39600
N1098       N  0.06025422  0.89072025  0.53556034    -0.37300
N1099       N  0.94243421  0.90736441  0.57393561    -0.38300
N1100       N  0.93856599  0.83951214  0.59234205    -0.40000
C1101       C  0.15118392  0.07324371  0.52915679    -0.04900
C1102       C  0.16355902  0.07644976  0.50741746     0.09200
C1103       C  0.15270947  0.06936141  0.48588285    -0.02300
C1104       C  0.12935068  0.05983958  0.48595040    -0.00600
C1105       C  0.11611620  0.05826145  0.50754957    -0.04200
C1106       C  0.12750818  0.06439886  0.52926321     0.02800
C1107       C  0.18746931  0.08865089  0.50683239     0.09700
C1108       C  0.16557665  0.07220508  0.46354365     0.35600
C1109       C  0.11483929  0.06226045  0.55179092     0.39000
C1110       C  0.20866580  0.07537660  0.50558947    -0.04500
C1111       C  0.23122994  0.08684220  0.50326120     0.02600
C1112       C  0.23328071  0.11264951  0.50406283    -0.04100
C1113       C  0.21078766  0.12554499  0.50481920    -0.00400
C1114       C  0.18854075  0.11357593  0.50588767    -0.02900
C1115       C  0.20697607  0.04945480  0.50602793     0.36300
C1116       C  0.20956033  0.15136255  0.50693385     0.39900
C1117       C  0.25099653  0.07102970  0.49768753     0.39100
C1118       C  0.16630836  0.12708303  0.50670342     0.36000
C1119       C  0.16267881  0.07913192  0.55154077     0.36700
C1120       C  0.11940824  0.05085762  0.46377557     0.39900
N1121       N  0.26587988  0.05751084  0.49273063    -0.38100
N1122       N  0.20552424  0.02883408  0.50635460    -0.39700
N1123       N  0.20659893  0.17170463  0.50915416    -0.37500
N1124       N  0.14862615  0.13779592  0.50744019    -0.39900
N1125       N  0.17588194  0.07452392  0.44576987    -0.39600
N1126       N  0.11156346  0.04354581  0.44612513    -0.37300
N1127       N  0.10484730  0.06046572  0.56980622    -0.38300
N1128       N  0.17133259  0.08344478  0.56976931    -0.40000
C1129       C  0.43874544  0.04077780  0.15350418    -0.04900
C1130       C  0.43378284  0.01829500  0.16385940     0.09200
C1131       C  0.43913618  0.99730912  0.15088802    -0.02300
C1132       C  0.44749149  0.99874125  0.12717735    -0.00600
C1133       C  0.45193544  0.02119191  0.11654572    -0.04200
C1134       C  0.44818764  0.04223250  0.13009284     0.02800
C1135       C  0.42146309  0.01662144  0.18774140     0.09700
C1136       C  0.43680502  0.97407969  0.16201724     0.35600
C1137       C  0.45338899  0.06541618  0.11977002     0.39000
C1138       C  0.39668138  0.01980808  0.18928369    -0.04500
C1139       C  0.38429108  0.01557615  0.21094175     0.02600
C1140       C  0.39663610  0.00872782  0.23262315    -0.04100
C1141       C  0.42255427  0.00853857  0.23083735    -0.00400
C1142       C  0.43433662  0.01141682  0.20849620    -0.02900
C1143       C  0.38361456  0.02636887  0.16785403     0.36300
C1144       C  0.43841283  0.00772616  0.25122385     0.39900
C1145       C  0.35838568  0.01583859  0.20922858     0.39100
C1146       C  0.46024610  0.00974738  0.20677779     0.36000
C1147       C  0.43406844  0.06239599  0.16701168     0.36700
C1148       C  0.45205790  0.97691966  0.11388998     0.39900
N1149       N  0.33795336  0.01606821  0.20597813    -0.38100
N1150       N  0.37327660  0.03164422  0.15079899    -0.39700
N1151       N  0.45215107  0.00777429  0.26665689    -0.37500
N1152       N  0.48085783  0.00845828  0.20534425    -0.39900
N1153       N  0.43577249  0.95525344  0.17045162    -0.39600
N1154       N  0.45557815  0.95953664  0.10325398    -0.37300
N1155       N  0.45763924  0.08392575  0.11160583    -0.38300
N1156       N  0.43028223  0.07961225  0.17782842    -0.40000
C1157       C  0.41239154  0.01174653  0.32035726    -0.04900
C1158       C  0.42504770  0.99036663  0.32257965     0.09200
C1159       C  0.42411799  0.97354137  0.30409359    -0.02300
C1160       C  0.41102893  0.97832399  0.28292991    -0.00600
C1161       C  0.39713103  0.99996668  0.28015873    -0.04200
C1162       C  0.39685418  0.01552861  0.30093212     0.02800
C1163       C  0.43671825  0.98497352  0.34604806     0.09700
C1164       C  0.43713442  0.95128430  0.30681555     0.35600
C1165       C  0.37852936  0.03318901  0.30581536     0.39000
C1166       C  0.42245114  0.97632260  0.36499148    -0.04500
C1167       C  0.43090811  0.97735306  0.38865482     0.02600
C1168       C  0.45396555  0.98637964  0.39346572    -0.04100
C1169       C  0.46898796  0.99320920  0.37435888    -0.00400
C1170       C  0.46026912  0.99278408  0.35070163    -0.02900
C1171       C  0.39859370  0.96736922  0.36012787     0.36300
C1172       C  0.49309780  0.00144714  0.37916358     0.39900
C1173       C  0.41561088  0.96980617  0.40817627     0.39100
C1174       C  0.47505611  0.00138062  0.33125389     0.36000
C1175       C  0.41410253  0.02940047  0.33943723     0.36700
C1176       C  0.41338499  0.96092837  0.26385379     0.39900
N1177       N  0.40341116  0.96389102  0.42379520    -0.38100
N1178       N  0.37960851  0.96018222  0.35611263    -0.39700
N1179       N  0.51235763  0.00795978  0.38302790    -0.37500
N1180       N  0.48684075  0.00827150  0.31571954    -0.39900
N1181       N  0.44752399  0.93355229  0.30899445    -0.39600
N1182       N  0.41646981  0.94655019  0.24931949    -0.37300
N1183       N  0.36395099  0.04685756  0.31116604    -0.38300
N1184       N  0.41550962  0.04334717  0.35462712    -0.40000
C1185       C  0.19610218  0.41586318  0.97696548    -0.04900
C1186       C  0.18123987  0.41705221  0.99694856     0.09200
C1187       C  0.18794543  0.40577645  0.01807588    -0.02300
C1188       C  0.20862676  0.39134181  0.01891808    -0.00600
C1189       C  0.22560427  0.39084439  0.99923855    -0.04200
C1190       C  0.21829776  0.40388264  0.97812916     0.02800
C1191       C  0.15716811  0.42836429  0.99546463     0.09700
C1192       C  0.17220188  0.40781946  0.03877403     0.35600
C1193       C  0.23369821  0.40667897  0.95744420     0.39000
C1194       C  0.13693627  0.41378886  0.99199920    -0.04500
C1195       C  0.11384259  0.42341431  0.99450453     0.02600
C1196       C  0.11077420  0.44820665  0.99887733    -0.04100
C1197       C  0.13132982  0.46303111  0.00090155    -0.00400
C1198       C  0.15439608  0.45293975  0.99992128    -0.02900
C1199       C  0.14000368  0.38862585  0.98644871     0.36300
C1200       C  0.12905076  0.48873242  0.00351195     0.39900
C1201       C  0.09346932  0.40732476  0.99402007     0.39100
C1202       C  0.17533538  0.46768605  0.00410546     0.36000
C1203       C  0.18834150  0.42717970  0.95497877     0.36700
C1204       C  0.20888085  0.37526002  0.03912471     0.39900
N1205       N  0.07725666  0.39445418  0.99387418    -0.38100
N1206       N  0.14249445  0.36860923  0.98190228    -0.39700
N1207       N  0.12739686  0.50925084  0.00549296    -0.37500
N1208       N  0.19201450  0.47942437  0.00760726    -0.39900
N1209       N  0.15959859  0.40940401  0.05510423    -0.39600
N1210       N  0.20720032  0.36284205  0.05553393    -0.37300
N1211       N  0.24498892  0.41040857  0.94053103    -0.38300
N1212       N  0.18206099  0.43612553  0.93748644    -0.40000
C1213       C  0.35676030  0.42875531  0.97277322    -0.04900
C1214       C  0.34193620  0.42946518  0.99321593     0.09200
C1215       C  0.34988043  0.44173002  0.01374969    -0.02300
C1216       C  0.37298956  0.45189856  0.01436061    -0.00600
C1217       C  0.38844040  0.44989105  0.99442238    -0.04200
C1218       C  0.37989360  0.43894037  0.97334728     0.02800
C1219       C  0.31854587  0.41615862  0.99380889     0.09700
C1220       C  0.33430450  0.44360749  0.03440657     0.35600
C1221       C  0.39522358  0.43717602  0.95249527     0.39000
C1222       C  0.31833293  0.39145604  0.99774189    -0.04500
C1223       C  0.29652476  0.37859448  0.99850572     0.02600
C1224       C  0.27357922  0.39046729  0.99683098    -0.04100
C1225       C  0.27470151  0.41635852  0.99565670    -0.00400
C1226       C  0.29678132  0.42842742  0.99231144    -0.02900
C1227       C  0.34100377  0.37904449  0.00047191     0.36300
C1228       C  0.25459408  0.43196133  0.00066063     0.39900
C1229       C  0.29874300  0.35276778  0.99895968     0.39100
C1230       C  0.29727729  0.45405922  0.98808164     0.36000
C1231       C  0.34845476  0.41730184  0.95112926     0.36700
C1232       C  0.38071157  0.46479972  0.03544763     0.39900
N1233       N  0.30223528  0.33239342  0.99900657    -0.38100
N1234       N  0.35906035  0.36919985  0.00262755    -0.39700
N1235       N  0.23938761  0.44531000  0.00505935    -0.37500
N1236       N  0.29769012  0.47444577  0.98469977    -0.39900
N1237       N  0.32174313  0.44522232  0.05076442    -0.39600
N1238       N  0.38685245  0.47516354  0.05222958    -0.37300
N1239       N  0.40738313  0.43578591  0.93581617    -0.38300
N1240       N  0.34242176  0.40837688  0.93351569    -0.40000
C1241       C  0.14986124  0.43673902  0.25126319    -0.04900
C1242       C  0.16563033  0.43300221  0.23225457     0.09200
C1243       C  0.16825726  0.45086419  0.21496714    -0.02300
C1244       C  0.15569507  0.47289580  0.21695956    -0.00600
C1245       C  0.13981371  0.47793711  0.23680208    -0.04200
C1246       C  0.13608678  0.45785527  0.25289496     0.02800
C1247       C  0.17793915  0.40915422  0.23020271     0.09700
C1248       C  0.18451391  0.44661254  0.19515387     0.35600
C1249       C  0.11620998  0.45563560  0.26935847     0.39000
C1250       C  0.16876723  0.39144936  0.21469516    -0.04500
C1251       C  0.17611372  0.36739182  0.21700450     0.02600
C1252       C  0.19227191  0.36079108  0.23517682    -0.04100
C1253       C  0.20231834  0.37868180  0.24988991    -0.00400
C1254       C  0.19558351  0.40280674  0.24704056    -0.02900
C1255       C  0.15099455  0.39784290  0.19702696     0.36300
C1256       C  0.21941720  0.37222900  0.26820584     0.39900
C1257       C  0.16600517  0.34921466  0.20155932     0.39100
C1258       C  0.20601495  0.42110258  0.26214234     0.36000
C1259       C  0.14669693  0.41765478  0.26873825     0.36700
C1260       C  0.16058256  0.49023156  0.19839152     0.39900
N1261       N  0.15790799  0.33468423  0.18928349    -0.38100
N1262       N  0.13691260  0.40303863  0.18285934    -0.39700
N1263       N  0.23294417  0.36703416  0.28290168    -0.37500
N1264       N  0.21428334  0.43573908  0.27417387    -0.39900
N1265       N  0.19741715  0.44319331  0.17934559    -0.39600
N1266       N  0.16588893  0.50273662  0.18283183    -0.37300
N1267       N  0.10067741  0.45210724  0.28255246    -0.38300
N1268       N  0.14425504  0.40251118  0.28256806    -0.40000
C1269       C  0.25176322  0.18372077  0.45841451    -0.04900
C1270       C  0.24675759  0.17236505  0.43671143     0.09200
C1271       C  0.24297713  0.14764230  0.43647078    -0.02300
C1272       C  0.24609834  0.13382125  0.45736686    -0.00600
C1273       C  0.25345467  0.14447036  0.47981124    -0.04200
C1274       C  0.25450234  0.17037707  0.47983073     0.02800
C1275       C  0.24596727  0.18606601  0.41359525     0.09700
C1276       C  0.23713948  0.13609185  0.41392823     0.35600
C1277       C  0.25617069  0.18467831  0.50130715     0.39000
C1278       C  0.26741029  0.19225104  0.40182865    -0.04500
C1279       C  0.26698213  0.20048857  0.37803963     0.02600
C1280       C  0.24497735  0.20268710  0.36558083    -0.04100
C1281       C  0.22334349  0.19867987  0.37832445    -0.00400
C1282       C  0.22392894  0.19047152  0.40219783    -0.02900
C1283       C  0.29009927  0.19008867  0.41412827     0.36300
C1284       C  0.20036976  0.20201634  0.36684622     0.39900
C1285       C  0.28941987  0.20697874  0.36664181     0.39100
C1286       C  0.20182141  0.18609229  0.41506957     0.36000
C1287       C  0.25328236  0.20965562  0.45867211     0.36700
C1288       C  0.24406498  0.10818048  0.45400875     0.39900
N1289       N  0.30734179  0.21208249  0.35760411    -0.38100
N1290       N  0.30837239  0.18886835  0.42370119    -0.39700
N1291       N  0.18196568  0.20472375  0.35783619    -0.37500
N1292       N  0.18424389  0.18264234  0.42545348    -0.39900
N1293       N  0.23253702  0.12699797  0.39596359    -0.39600
N1294       N  0.24223135  0.08811612  0.44934121    -0.37300
N1295       N  0.25686097  0.19718203  0.51776100    -0.38300
N1296       N  0.25435083  0.23030277  0.45886595    -0.40000
C1297       C  0.43080979  0.24754578  0.14222948    -0.04900
C1298       C  0.43118796  0.24690166  0.16711959     0.09200
C1299       C  0.45312177  0.24769956  0.17907561    -0.02300
C1300       C  0.47508654  0.24857417  0.16624913    -0.00600
C1301       C  0.47555716  0.24781214  0.14037595    -0.04200
C1302       C  0.45229056  0.24771568  0.12895022     0.02800
C1303       C  0.40791141  0.24619322  0.18045147     0.09700
C1304       C  0.45283812  0.24865883  0.20499442     0.35600
C1305       C  0.44928934  0.24500087  0.10338969     0.39000
C1306       C  0.39647363  0.22415980  0.18486864    -0.04500
C1307       C  0.37233378  0.22355547  0.19232682     0.02600
C1308       C  0.35978042  0.24512049  0.19665288    -0.04100
C1309       C  0.37220512  0.26716866  0.19439588    -0.00400
C1310       C  0.39590403  0.26766441  0.18573670    -0.02900
C1311       C  0.40945953  0.20201583  0.18147606     0.36300
C1312       C  0.36090631  0.28946529  0.20135618     0.39900
C1313       C  0.36024148  0.20068255  0.19424364     0.39100
C1314       C  0.40782710  0.29033305  0.18159728     0.36000
C1315       C  0.40776941  0.24745155  0.13012821     0.36700
C1316       C  0.49608280  0.25237825  0.18087512     0.39900
N1317       N  0.35062896  0.18241277  0.19564512    -0.38100
N1318       N  0.41958245  0.18412812  0.17926934    -0.39700
N1319       N  0.35196286  0.30724411  0.20699813    -0.37500
N1320       N  0.41736073  0.30837236  0.17818638    -0.39900
N1321       N  0.45256072  0.24962914  0.22561224    -0.39600
N1322       N  0.51195714  0.25595791  0.19362998    -0.37300
N1323       N  0.44458428  0.24213573  0.08350011    -0.38300
N1324       N  0.38942678  0.24736348  0.12060375    -0.40000
C1325       C  0.33055461  0.11217081  0.28494038    -0.04900
C1326       C  0.32857513  0.09756787  0.26437766     0.09200
C1327       C  0.31608990  0.10631937  0.24436184    -0.02300
C1328       C  0.30639881  0.12960499  0.24455244    -0.00600
C1329       C  0.30927548  0.14465051  0.26470415    -0.04200
C1330       C  0.32069816  0.13547215  0.28520977     0.02800
C1331       C  0.34120205  0.07377365  0.26288981     0.09700
C1332       C  0.31387698  0.09156262  0.22317842     0.35600
C1333       C  0.32313558  0.15025491  0.30634469     0.39000
C1334       C  0.32837335  0.05217540  0.26322605    -0.04500
C1335       C  0.34010037  0.02984059  0.25991592     0.02600
C1336       C  0.36591899  0.02830493  0.25866684    -0.04100
C1337       C  0.37834943  0.05109021  0.25827854    -0.00400
C1338       C  0.36600178  0.07311075  0.25956092    -0.02900
C1339       C  0.30259176  0.05311978  0.26650261     0.36300
C1340       C  0.40422572  0.05295347  0.25901026     0.39900
C1341       C  0.32438122  0.00965048  0.25590451     0.39100
C1342       C  0.37907416  0.09555957  0.25790107     0.36000
C1343       C  0.34354810  0.10368239  0.30559414     0.36700
C1344       C  0.29302465  0.13790400  0.22401445     0.39900
N1345       N  0.31085621  0.99439012  0.25229355    -0.38100
N1346       N  0.28206013  0.05392685  0.26903888    -0.39700
N1347       N  0.42457998  0.05653572  0.26016556    -0.37500
N1348       N  0.38945009  0.11341592  0.25664881    -0.39900
N1349       N  0.31209197  0.07971000  0.20634727    -0.39600
N1350       N  0.28230771  0.14453342  0.20767964    -0.37300
N1351       N  0.32498383  0.16195812  0.32327734    -0.38300
N1352       N  0.35406392  0.09749651  0.32222497    -0.40000
C1353       C  0.25382762  0.32147649  0.04583596    -0.04900
C1354       C  0.25762024  0.33411637  0.06714114     0.09200
C1355       C  0.26088573  0.35892940  0.06614027    -0.02300
C1356       C  0.25892576  0.37142531  0.04428258    -0.00600
C1357       C  0.25299571  0.35935892  0.02216335    -0.04200
C1358       C  0.25222526  0.33350947  0.02356131     0.02800
C1359       C  0.25785692  0.32154295  0.09096806     0.09700
C1360       C  0.26479124  0.37201890  0.08826372     0.35600
C1361       C  0.25189072  0.31802956  0.00280186     0.39000
C1362       C  0.27918412  0.32015045  0.10439812    -0.04500
C1363       C  0.27877065  0.31161355  0.12814166     0.02600
C1364       C  0.25701981  0.30371598  0.13859446    -0.04100
C1365       C  0.23610008  0.30323734  0.12431697    -0.00400
C1366       C  0.23642896  0.31250449  0.10088717    -0.02900
C1367       C  0.30154943  0.32812076  0.09388461     0.36300
C1368       C  0.21420325  0.29261412  0.13340713     0.39900
C1369       C  0.30069065  0.31193564  0.14194480     0.39100
C1370       C  0.21447447  0.31304205  0.08715107     0.36000
C1371       C  0.25198334  0.29558078  0.04692799     0.36700
C1372       C  0.26068748  0.39723158  0.04612485     0.39900
N1373       N  0.31822157  0.31217615  0.15288505    -0.38100
N1374       N  0.31933368  0.33462466  0.08550787    -0.39700
N1375       N  0.19677058  0.28403766  0.14057618    -0.37500
N1376       N  0.19689783  0.31317811  0.07628982    -0.39900
N1377       N  0.26791775  0.38240609  0.10584660    -0.39600
N1378       N  0.26229846  0.41754130  0.04966811    -0.37300
N1379       N  0.25204340  0.30476145  0.98692870    -0.38300
N1380       N  0.25037399  0.27498861  0.04784346    -0.40000
C1381       C  0.97545002  0.29731918  0.41651005    -0.04900
C1382       C  0.98993971  0.31702413  0.41087623     0.09200
C1383       C  0.01007163  0.31339446  0.39633186    -0.02300
C1384       C  0.01556234  0.29046629  0.38718943    -0.00600
C1385       C  0.99852124  0.27110788  0.38846786    -0.04200
C1386       C  0.97917240  0.27482141  0.40523044     0.02800
C1387       C  0.98523630  0.34151416  0.42115544     0.09700
C1388       C  0.02548946  0.33361861  0.39074632     0.35600
C1389       C  0.96177725  0.25640768  0.41056431     0.39000
C1390       C  0.00106949  0.35110886  0.43832053    -0.04500
C1391       C  0.99923955  0.37527300  0.44529479     0.02600
C1392       C  0.98176334  0.39020914  0.43498957    -0.04100
C1393       C  0.96494933  0.38035820  0.41906134    -0.00400
C1394       C  0.96644224  0.35601170  0.41240254    -0.02900
C1395       C  0.01925416  0.33599422  0.44887190     0.36300
C1396       C  0.94593389  0.39526303  0.40974869     0.39900
C1397       C  0.01507517  0.38467679  0.46350463     0.39100
C1398       C  0.94815905  0.34593856  0.39712768     0.36000
C1399       C  0.95619761  0.30046156  0.43366675     0.36700
C1400       C  0.04024700  0.28748194  0.38018148     0.39900
N1401       N  0.02757543  0.39207386  0.47819131    -0.38100
N1402       N  0.03378287  0.32391762  0.45721363    -0.39700
N1403       N  0.93073831  0.40713854  0.40234492    -0.37500
N1404       N  0.93296940  0.33827930  0.38538537    -0.39900
N1405       N  0.03774249  0.34970831  0.38636834    -0.39600
N1406       N  0.06047505  0.28679181  0.37589748    -0.37300
N1407       N  0.94709052  0.24292046  0.41609946    -0.38300
N1408       N  0.94088128  0.30300112  0.44735571    -0.40000
C1409       C  0.03026435  0.14330742  0.42222656    -0.04900
C1410       C  0.01064815  0.15787583  0.42887753     0.09200
C1411       C  0.99354939  0.14875987  0.44511266    -0.02300
C1412       C  0.99462108  0.12468708  0.45255707    -0.00600
C1413       C  0.01304009  0.10953776  0.44415833    -0.04200
C1414       C  0.03126746  0.11915540  0.42957574     0.02800
C1415       C  0.00625387  0.18152775  0.41670746     0.09700
C1416       C  0.97473134  0.16422867  0.45403578     0.35600
C1417       C  0.05044090  0.10387329  0.42111061     0.39000
C1418       C  0.98730987  0.18367866  0.40048636    -0.04500
C1419       C  0.98231631  0.20572956  0.38919908     0.02600
C1420       C  0.99905097  0.22539103  0.39005804    -0.04100
C1421       C  0.01727811  0.22316453  0.40821686    -0.00400
C1422       C  0.02019215  0.20177645  0.42162225    -0.02900
C1423       C  0.97286434  0.16271213  0.39505822     0.36300
C1424       C  0.03407652  0.24209711  0.41349822     0.39900
C1425       C  0.95834687  0.20756939  0.37992735     0.39100
C1426       C  0.03806548  0.20032292  0.44033571     0.36000
C1427       C  0.04957160  0.15302490  0.40793954     0.36700
C1428       C  0.97681781  0.11552730  0.46905905     0.39900
N1429       N  0.93863758  0.20731856  0.37375573    -0.38100
N1430       N  0.96147212  0.14599542  0.39072100    -0.39700
N1431       N  0.04818374  0.25596395  0.41954051    -0.37500
N1432       N  0.05228888  0.19915820  0.45525126    -0.39900
N1433       N  0.95977098  0.17661446  0.46117798    -0.39600
N1434       N  0.96267053  0.10818699  0.48225696    -0.37300
N1435       N  0.06566897  0.09165562  0.41424768    -0.38300
N1436       N  0.06546202  0.16054289  0.39700646    -0.40000
C1437       C  0.11228718  0.25883548  0.34216863    -0.04900
C1438       C  0.09391137  0.25642089  0.32496272     0.09200
C1439       C  0.09987890  0.25724355  0.30043752    -0.02300
C1440       C  0.12377690  0.26112127  0.29324152    -0.00600
C1441       C  0.14211833  0.26288932  0.31044845    -0.04200
C1442       C  0.13626907  0.26175073  0.33491686     0.02800
C1443       C  0.06857619  0.25186186  0.33284393     0.09700
C1444       C  0.08168168  0.25275161  0.28256078     0.35600
C1445       C  0.15500970  0.26341241  0.35272528     0.39000
C1446       C  0.05013788  0.26809584  0.32770266    -0.04500
C1447       C  0.02682099  0.26442120  0.33692239     0.02600
C1448       C  0.02238535  0.24659333  0.35491549    -0.04100
C1449       C  0.04001593  0.22774751  0.35559090    -0.00400
C1450       C  0.06280985  0.23074106  0.34499480    -0.02900
C1451       C  0.05547006  0.28968899  0.31432649     0.36300
C1452       C  0.03421797  0.20346772  0.36236884     0.39900
C1453       C  0.00815037  0.27892931  0.32661783     0.39100
C1454       C  0.08028438  0.21149445  0.34565613     0.36000
C1455       C  0.10678612  0.25734208  0.36743872     0.36700
C1456       C  0.12964081  0.26199216  0.26803103     0.39900
N1457       N  0.99454612  0.29050310  0.31625368    -0.38100
N1458       N  0.05963904  0.30692672  0.30372251    -0.39700
N1459       N  0.03007340  0.18357113  0.36609167    -0.37500
N1460       N  0.09413793  0.19615229  0.34605652    -0.39900
N1461       N  0.06715911  0.24919630  0.26831039    -0.39600
N1462       N  0.13426566  0.26274698  0.24791633    -0.37300
N1463       N  0.16990072  0.26463593  0.36698029    -0.38300
N1464       N  0.10267564  0.25579937  0.38762179    -0.40000
C1465       C  0.91262200  0.97485018  0.19046031    -0.04900
C1466       C  0.92390906  0.99554751  0.18244004     0.09200
C1467       C  0.92225073  0.01647662  0.19601874    -0.02300
C1468       C  0.90969026  0.01663130  0.21806724    -0.00600
C1469       C  0.89639928  0.99597590  0.22630339    -0.04200
C1470       C  0.89681404  0.97569923  0.21006540     0.02800
C1471       C  0.93461848  0.99554642  0.15790542     0.09700
C1472       C  0.93399562  0.03791339  0.18729223     0.35600
C1473       C  0.87874575  0.95720634  0.20903311     0.39000
C1474       C  0.91969595  0.99970238  0.13813385    -0.04500
C1475       C  0.92812966  0.99555899  0.11475031     0.02600
C1476       C  0.95208214  0.98784263  0.11075981    -0.04100
C1477       C  0.96726663  0.98469278  0.13084440    -0.00400
C1478       C  0.95837934  0.98811138  0.15423162    -0.02900
C1479       C  0.89524472  0.00760823  0.14202078     0.36300
C1480       C  0.99226560  0.97849786  0.12773646     0.39900
C1481       C  0.91154827  0.99849640  0.09507113     0.39100
C1482       C  0.97348311  0.98341845  0.17469272     0.36000
C1483       C  0.91574272  0.95279633  0.17692429     0.36700
C1484       C  0.91191002  0.03826699  0.23213443     0.39900
N1485       N  0.89818172  0.00092169  0.07952583    -0.38100
N1486       N  0.87580017  0.01396122  0.14518943    -0.39700
N1487       N  0.01224391  0.97362272  0.12535662    -0.37500
N1488       N  0.98543775  0.97956993  0.19106141    -0.39900
N1489       N  0.94334871  0.05498273  0.18030266    -0.39600
N1490       N  0.91513507  0.05602049  0.24222612    -0.37300
N1491       N  0.86475809  0.94221872  0.20631900    -0.38300
N1492       N  0.91829027  0.93529752  0.16620274    -0.40000
C1493       C  0.89616263  0.99783591  0.31914760    -0.04900
C1494       C  0.92069878  0.00273787  0.31968312     0.09200
C1495       C  0.93332837  0.00454016  0.29810382    -0.02300
C1496       C  0.92170129  0.00076626  0.27591556    -0.00600
C1497       C  0.89588911  0.99884305  0.27452342    -0.04200
C1498       C  0.88364755  0.99713021  0.29728589     0.02800
C1499       C  0.93329297  0.00461788  0.34328597     0.09700
C1500       C  0.95878422  0.00982973  0.29887424     0.35600
C1501       C  0.85779146  0.99669651  0.29939100     0.39000
C1502       C  0.94762935  0.98552526  0.35139121    -0.04500
C1503       C  0.95742711  0.98604558  0.37455805     0.02600
C1504       C  0.95226937  0.00527222  0.39015674    -0.04100
C1505       C  0.93856297  0.02468654  0.38182825    -0.00400
C1506       C  0.92928608  0.02446197  0.35845206    -0.02900
C1507       C  0.95155906  0.96489595  0.33617525     0.36300
C1508       C  0.93287315  0.04438215  0.39773396     0.39900
C1509       C  0.97319109  0.96694563  0.38217006     0.39100
C1510       C  0.91488351  0.04442344  0.35052611     0.36000
C1511       C  0.88355179  0.99394418  0.34156108     0.36700
C1512       C  0.93762601  0.99635678  0.25595658     0.39900
N1513       N  0.98589774  0.95179547  0.38815882    -0.38100
N1514       N  0.95463574  0.94847296  0.32398972    -0.39700
N1515       N  0.92830720  0.06002577  0.41046790    -0.37500
N1516       N  0.90337928  0.06068474  0.34507600    -0.39900
N1517       N  0.97903947  0.01405559  0.29952312    -0.39600
N1518       N  0.95130455  0.99231773  0.24093884    -0.37300
N1519       N  0.83743296  0.99666134  0.30316533    -0.38300
N1520       N  0.87361647  0.99083846  0.35942345    -0.40000
C1521       C  0.84946197  0.06150816  0.25934744    -0.04900
C1522       C  0.83852149  0.06521541  0.23727542     0.09200
C1523       C  0.84000374  0.04721413  0.21992728    -0.02300
C1524       C  0.85153895  0.02513705  0.22492458    -0.00600
C1525       C  0.86461952  0.02127421  0.24685406    -0.04200
C1526       C  0.86447609  0.04154036  0.26310395     0.02800
C1527       C  0.82714356  0.08910876  0.23209847     0.09700
C1528       C  0.82970530  0.05161120  0.19659168     0.35600
C1529       C  0.88228924  0.04564957  0.28132759     0.39000
C1530       C  0.84172825  0.10939806  0.22829747    -0.04500
C1531       C  0.83153596  0.13249866  0.22710692     0.02600
C1532       C  0.80646538  0.13561821  0.22918337    -0.04100
C1533       C  0.79177249  0.11502602  0.23145799    -0.00400
C1534       C  0.80210963  0.09199654  0.23328277    -0.02900
C1535       C  0.86740362  0.10643893  0.22590532     0.36300
C1536       C  0.76598100  0.11744722  0.23281008     0.39900
C1537       C  0.84695405  0.15299448  0.22322763     0.39100
C1538       C  0.78704301  0.07127136  0.23724496     0.36000
C1539       C  0.84661205  0.07956608  0.27787741     0.36700
C1540       C  0.84884757  0.00662983  0.20702594     0.39900
N1541       N  0.85930613  0.16930738  0.22012907    -0.38100
N1542       N  0.88787173  0.10402299  0.22397628    -0.39700
N1543       N  0.74538488  0.11931600  0.23373663    -0.37500
N1544       N  0.77506209  0.05470875  0.24044763    -0.39900
N1545       N  0.82166348  0.05517802  0.17793485    -0.39600
N1546       N  0.84530153  0.99291371  0.19198390    -0.37300
N1547       N  0.89664032  0.05054484  0.29533190    -0.38300
N1548       N  0.84431022  0.09393622  0.29256220    -0.40000
C1549       C  0.93617763  0.26267536  0.34342461    -0.04900
C1550       C  0.93154373  0.24194249  0.33023527     0.09200
C1551       C  0.95041412  0.22605142  0.32550063    -0.02300
C1552       C  0.97301298  0.22929468  0.33647111    -0.00600
C1553       C  0.97663389  0.24773842  0.35408190    -0.04200
C1554       C  0.95888640  0.26646137  0.35365869     0.02800
C1555       C  0.90723479  0.23801227  0.31973331     0.09700
C1556       C  0.94614995  0.20545362  0.31024544     0.35600
C1557       C  0.96481580  0.29128792  0.35791938     0.39000
C1558       C  0.90373283  0.24046677  0.29491307    -0.04500
C1559       C  0.88083779  0.23708110  0.28503360     0.02600
C1560       C  0.86103256  0.23232731  0.30004618    -0.04100
C1561       C  0.86442427  0.23035847  0.32490225    -0.00400
C1562       C  0.88743890  0.23305826  0.33470512    -0.02900
C1563       C  0.92350052  0.24760155  0.27966079     0.36300
C1564       C  0.84424935  0.22528187  0.34045479     0.39900
C1565       C  0.87757080  0.23948976  0.25946701     0.39100
C1566       C  0.89042425  0.23154954  0.36035017     0.36000
C1567       C  0.91780512  0.28100141  0.34516851     0.36700
C1568       C  0.99177914  0.21332972  0.32866591     0.39900
N1569       N  0.87498838  0.24131290  0.23907481    -0.38100
N1570       N  0.93926836  0.25335496  0.26754687    -0.39700
N1571       N  0.82816559  0.22131884  0.35287129    -0.37500
N1572       N  0.89225702  0.23062807  0.38088513    -0.39900
N1573       N  0.94280061  0.18910440  0.29804000    -0.39600
N1574       N  0.00548688  0.20027093  0.32030741    -0.37300
N1575       N  0.96925040  0.31140582  0.35955716    -0.38300
N1576       N  0.90315172  0.29553408  0.34650248    -0.40000
C1577       C  0.55608753  0.23181780  0.16260044    -0.04900
C1578       C  0.56958736  0.25285563  0.16321181     0.09200
C1579       C  0.56077776  0.27325814  0.15198035    -0.02300
C1580       C  0.53993150  0.27217184  0.13776343    -0.00600
C1581       C  0.52394652  0.25167039  0.13853813    -0.04200
C1582       C  0.53321550  0.23135339  0.15164137     0.02800
C1583       C  0.59423858  0.25340797  0.17387492     0.09700
C1584       C  0.57426763  0.29544194  0.15410020     0.35600
C1585       C  0.51936500  0.20979451  0.15557703     0.39000
C1586       C  0.61435968  0.24992861  0.15907500    -0.04500
C1587       C  0.63769435  0.25365513  0.16798597     0.02600
C1588       C  0.64130070  0.25994668  0.19228782    -0.04100
C1589       C  0.62089490  0.26254634  0.20729041    -0.00400
C1590       C  0.59756632  0.25968087  0.19797401    -0.02900
C1591       C  0.61090461  0.24273690  0.13443516     0.36300
C1592       C  0.62362179  0.26756598  0.23253255     0.39900
C1593       C  0.65778940  0.25199506  0.15163298     0.39100
C1594       C  0.57684093  0.26346436  0.21312357     0.36000
C1595       C  0.56580989  0.21050469  0.17371050     0.36700
C1596       C  0.53851211  0.29135164  0.12053575     0.39900
N1597       N  0.67375092  0.25074797  0.13850494    -0.38100
N1598       N  0.60803442  0.23685743  0.11485189    -0.39700
N1599       N  0.62565855  0.27151201  0.25269657    -0.37500
N1600       N  0.56031490  0.26654725  0.22520316    -0.39900
N1601       N  0.58493952  0.31306792  0.15595879    -0.39600
N1602       N  0.53907573  0.30703341  0.10711889    -0.37300
N1603       N  0.50966367  0.19211312  0.16017978    -0.38300
N1604       N  0.57360141  0.19350443  0.18246350    -0.40000
C1605       C  0.02782824  0.34934236  0.92610949    -0.04900
C1606       C  0.00472810  0.34126565  0.91990354     0.09200
C1607       C  0.98495281  0.35656448  0.92312285    -0.02300
C1608       C  0.98831139  0.38005399  0.93166859    -0.00600
C1609       C  0.01165434  0.38871966  0.93648706    -0.04200
C1610       C  0.03138906  0.37317111  0.93360862     0.02800
C1611       C  0.00139599  0.31757360  0.90773334     0.09700
C1612       C  0.96110152  0.34802632  0.91748906     0.35600
C1613       C  0.05557198  0.38203289  0.93674816     0.39000
C1614       C  0.00045556  0.29630226  0.92079966    -0.04500
C1615       C  0.99731225  0.27391650  0.90922660     0.02600
C1616       C  0.99685182  0.27211012  0.88340266    -0.04100
C1617       C  0.99644229  0.29475723  0.87083141    -0.00400
C1618       C  0.99852201  0.31681289  0.88296380    -0.02900
C1619       C  0.00205663  0.29771893  0.94665435     0.36300
C1620       C  0.99683278  0.29634377  0.84498343     0.39900
C1621       C  0.99255728  0.25412756  0.92518147     0.39100
C1622       C  0.99897671  0.33913817  0.86966272     0.36000
C1623       C  0.04802248  0.33315927  0.92502348     0.36700
C1624       C  0.96758045  0.39508973  0.93582849     0.39900
N1625       N  0.98828786  0.23936227  0.93900890    -0.38100
N1626       N  0.00331684  0.29886037  0.96722341    -0.39700
N1627       N  0.99765237  0.29951852  0.82460341    -0.37500
N1628       N  0.99936555  0.35690267  0.85913398    -0.39900
N1629       N  0.94214734  0.34110897  0.91289858    -0.39600
N1630       N  0.95099602  0.40701346  0.93913508    -0.37300
N1631       N  0.07493304  0.38905952  0.93879751    -0.38300
N1632       N  0.06436335  0.32048679  0.92485331    -0.40000
C1633       C  0.97220066  0.18733013  0.89895972    -0.04900
C1634       C  0.99187569  0.18075402  0.91275941     0.09200
C1635       C  0.01239396  0.19508938  0.91259444    -0.02300
C1636       C  0.01345407  0.21612779  0.89852413    -0.00600
C1637       C  0.99341702  0.22382922  0.88415086    -0.04200
C1638       C  0.97333844  0.20729530  0.88360328     0.02800
C1639       C  0.99173027  0.15690013  0.92495016     0.09700
C1640       C  0.03239494  0.18833696  0.92764510     0.35600
C1641       C  0.95487860  0.20724218  0.86550717     0.39000
C1642       C  0.99447156  0.13603290  0.91111423    -0.04500
C1643       C  0.99095012  0.11335463  0.92141421     0.02600
C1644       C  0.98675814  0.11109161  0.94632596    -0.04100
C1645       C  0.98526574  0.13218926  0.96038370    -0.00400
C1646       C  0.98678576  0.15493994  0.94952430    -0.02900
C1647       C  0.00056586  0.13799904  0.88599279     0.36300
C1648       C  0.98299550  0.13074094  0.98611661     0.39900
C1649       C  0.99051046  0.09257819  0.90587274     0.39100
C1650       C  0.98270683  0.17637818  0.96349668     0.36000
C1651       C  0.95087394  0.17231189  0.89963678     0.36700
C1652       C  0.03533089  0.22994186  0.90040681     0.39900
N1653       N  0.98999255  0.07610995  0.89337396    -0.38100
N1654       N  0.00554989  0.13960439  0.86601441    -0.39700
N1655       N  0.98140955  0.12968585  0.00667571    -0.37500
N1656       N  0.97922660  0.19346968  0.97460511    -0.39900
N1657       N  0.04818022  0.18308742  0.93987380    -0.39600
N1658       N  0.05331970  0.23977524  0.90323264    -0.37300
N1659       N  0.93986380  0.20572936  0.85142560    -0.38300
N1660       N  0.93401360  0.16030809  0.90008752    -0.40000
C1661       C  0.09036339  0.23662826  0.79003987    -0.04900
C1662       C  0.08647212  0.22914813  0.81376235     0.09200
C1663       C  0.10598428  0.22116450  0.82754471    -0.02300
C1664       C  0.12939506  0.22186883  0.81813580    -0.00600
C1665       C  0.13350294  0.23057396  0.79483473    -0.04200
C1666       C  0.11382915  0.23749777  0.78062257     0.02800
C1667       C  0.06296142  0.23401859  0.82579958     0.09700
C1668       C  0.10199170  0.21313517  0.85182016     0.35600
C1669       C  0.11784537  0.24708289  0.75692855     0.39000
C1670       C  0.04524050  0.21648344  0.82784074    -0.04500
C1671       C  0.02338889  0.22141496  0.83989187     0.02600
C1672       C  0.01953414  0.24364666  0.85267421    -0.04100
C1673       C  0.03992913  0.25979462  0.85241779    -0.00400
C1674       C  0.05974729  0.25594460  0.83722372    -0.02900
C1675       C  0.04969113  0.19310937  0.81745154     0.36300
C1676       C  0.04411093  0.27847705  0.86976580     0.39900
C1677       C  0.00506052  0.20322908  0.83767648     0.39100
C1678       C  0.07835540  0.27408377  0.83483869     0.36000
C1679       C  0.07025276  0.24434795  0.77571657     0.36700
C1680       C  0.14933353  0.21378655  0.83253757     0.39900
N1681       N  0.99165210  0.18779455  0.83449720    -0.38100
N1682       N  0.05338671  0.17441937  0.80940528    -0.39700
N1683       N  0.04914889  0.29331255  0.88322240    -0.37500
N1684       N  0.09321603  0.28836582  0.83293775    -0.39900
N1685       N  0.09873517  0.20675395  0.87118157    -0.39600
N1686       N  0.16529597  0.20738577  0.84396675    -0.37300
N1687       N  0.12102791  0.25493345  0.73809940    -0.38300
N1688       N  0.05418281  0.25044155  0.76427193    -0.40000
C1689       C  0.22553834  0.34073172  0.88604566    -0.04900
C1690       C  0.22622111  0.32525944  0.90593451     0.09200
C1691       C  0.22280478  0.30053850  0.90238930    -0.02300
C1692       C  0.21981219  0.29123804  0.87909080    -0.00600
C1693       C  0.22121431  0.30652438  0.85887972    -0.04200
C1694       C  0.22368152  0.33145750  0.86268238     0.02800
C1695       C  0.23286242  0.33502247  0.93012590     0.09700
C1696       C  0.22314864  0.28453644  0.92272159     0.35600
C1697       C  0.22433673  0.34781727  0.84262416     0.39000
C1698       C  0.21612342  0.33667544  0.94869307    -0.04500
C1699       C  0.22255926  0.34680179  0.97100332     0.02600
C1700       C  0.24523845  0.35893610  0.97449075    -0.04100
C1701       C  0.26122546  0.35810123  0.95407420    -0.00400
C1702       C  0.25591341  0.34408121  0.93374834    -0.02900
C1703       C  0.19194255  0.32804361  0.94470109     0.36300
C1704       C  0.28124855  0.37405104  0.95047343     0.39900
C1705       C  0.20534271  0.34371259  0.99016743     0.39100
C1706       C  0.27395866  0.34032660  0.91532040     0.36000
C1707       C  0.22708739  0.36636596  0.88965227     0.36700
C1708       C  0.21629518  0.26571689  0.87614242     0.39900
N1709       N  0.19092267  0.34000698  0.00453962    -0.38100
N1710       N  0.17267326  0.32120752  0.94148935    -0.39700
N1711       N  0.29685071  0.38681830  0.94583392    -0.37500
N1712       N  0.28825682  0.33739177  0.90064943    -0.39900
N1713       N  0.22330712  0.27181425  0.93897388    -0.39600
N1714       N  0.21329264  0.24537432  0.87390699    -0.37300
N1715       N  0.22508520  0.36089735  0.82666800    -0.38300
N1716       N  0.22825811  0.38681890  0.89243145    -0.40000
C1717       C  0.28473070  0.16313871  0.61515425    -0.04900
C1718       C  0.27965619  0.17761212  0.59516192     0.09200
C1719       C  0.27614565  0.20232401  0.59845175    -0.02300
C1720       C  0.27595399  0.21222661  0.62166863    -0.00600
C1721       C  0.27884829  0.19736954  0.64194781    -0.04200
C1722       C  0.28417960  0.17290858  0.63845200     0.02800
C1723       C  0.27418306  0.16617896  0.57146659     0.09700
C1724       C  0.27192390  0.21745535  0.57792560     0.35600
C1725       C  0.28968270  0.15789289  0.65875990     0.39000
C1726       C  0.25174630  0.15571006  0.56810293    -0.04500
C1727       C  0.24721118  0.14124949  0.54797791     0.02600
C1728       C  0.26277449  0.14173084  0.52721492    -0.04100
C1729       C  0.28526160  0.15405532  0.53083614    -0.00400
C1730       C  0.29116776  0.16477508  0.55307654    -0.02900
C1731       C  0.23340297  0.15892044  0.58632537     0.36300
C1732       C  0.30237025  0.15725506  0.51161509     0.39900
C1733       C  0.22869009  0.12362946  0.55204133     0.39100
C1734       C  0.31478960  0.17475886  0.55702894     0.36000
C1735       C  0.29021581  0.13805908  0.61162849     0.36700
C1736       C  0.27181251  0.23764526  0.62458712     0.39900
N1737       N  0.21424862  0.10957819  0.55671638    -0.38100
N1738       N  0.21878095  0.16166034  0.60071266    -0.39700
N1739       N  0.31639488  0.16093878  0.49686211    -0.37500
N1740       N  0.33367572  0.18257999  0.56025604    -0.39900
N1741       N  0.26864028  0.22963656  0.56160387    -0.39600
N1742       N  0.26867233  0.25795520  0.62686158    -0.37300
N1743       N  0.29423470  0.14593431  0.67494612    -0.38300
N1744       N  0.29473840  0.11809941  0.60867599    -0.40000
C1745       C  0.49224132  0.29624977  0.57208098    -0.04900
C1746       C  0.49478721  0.31806455  0.58410317     0.09200
C1747       C  0.49485896  0.31835242  0.60906292    -0.02300
C1748       C  0.49420357  0.29683385  0.62219760    -0.00600
C1749       C  0.49342878  0.27370594  0.61052656    -0.04200
C1750       C  0.49062576  0.27438409  0.58482985     0.02800
C1751       C  0.49703090  0.34121606  0.57074515     0.09700
C1752       C  0.49692942  0.34119316  0.62137085     0.35600
C1753       C  0.48347984  0.25388577  0.57066112     0.39000
C1754       C  0.47751503  0.35714329  0.56992718    -0.04500
C1755       C  0.48053059  0.38042167  0.56073163     0.02600
C1756       C  0.50332141  0.38820300  0.55269602    -0.04100
C1757       C  0.52250746  0.37168035  0.55229727    -0.00400
C1758       C  0.51923409  0.34821868  0.56095008    -0.02900
C1759       C  0.45430920  0.34947192  0.57871269     0.36300
C1760       C  0.54595795  0.37891618  0.54378491     0.39900
C1761       C  0.45988174  0.39598531  0.55879787     0.39100
C1762       C  0.53882178  0.33130712  0.55971308     0.36000
C1763       C  0.49043894  0.29655309  0.54622159     0.36700
C1764       C  0.49697211  0.29950985  0.64780487     0.39900
N1765       N  0.44335066  0.40829425  0.55710656    -0.38100
N1766       N  0.43586520  0.34323959  0.58577153    -0.39700
N1767       N  0.56466191  0.38463620  0.53697157    -0.37500
N1768       N  0.55455013  0.31796902  0.55814582    -0.39900
N1769       N  0.49859117  0.35935118  0.63112575    -0.39600
N1770       N  0.49949203  0.30365496  0.66787056    -0.37300
N1771       N  0.47725160  0.23828340  0.55857596    -0.38300
N1772       N  0.48897888  0.29683776  0.52563890    -0.40000
C1773       C  0.50925506  0.19502157  0.58445069    -0.04900
C1774       C  0.49201179  0.17787093  0.59051509     0.09200
C1775       C  0.47384756  0.18412302  0.60657038    -0.02300
C1776       C  0.47217939  0.20759157  0.61604121    -0.00600
C1777       C  0.49079283  0.22530860  0.61185332    -0.04200
C1778       C  0.50965206  0.21766615  0.59580898     0.02800
C1779       C  0.49331531  0.15274955  0.58074852     0.09700
C1780       C  0.45716403  0.16560780  0.61435443     0.35600
C1781       C  0.52961270  0.23300990  0.58948857     0.39000
C1782       C  0.51284484  0.13786065  0.58639462    -0.04500
C1783       C  0.51410805  0.11442821  0.57714274     0.02600
C1784       C  0.49401264  0.10401185  0.56544011    -0.04100
C1785       C  0.47383690  0.11879114  0.56104516    -0.00400
C1786       C  0.47439215  0.14333185  0.56696427    -0.02900
C1787       C  0.53156581  0.14648785  0.60215057     0.36300
C1788       C  0.45180177  0.10883421  0.55176082     0.39900
C1789       C  0.53676303  0.10190522  0.57877845     0.39100
C1790       C  0.45524142  0.15891901  0.55908298     0.36000
C1791       C  0.52693422  0.18916937  0.56629054     0.36700
C1792       C  0.45163166  0.21092756  0.63140165     0.39900
N1793       N  0.55506601  0.09231125  0.57976856    -0.38100
N1794       N  0.54642421  0.15336798  0.61476262    -0.39700
N1795       N  0.43397318  0.10089143  0.54493274    -0.37500
N1796       N  0.44001609  0.17138526  0.55278779    -0.39900
N1797       N  0.44389343  0.15097529  0.62053349    -0.39600
N1798       N  0.43459785  0.21146826  0.64315545    -0.37300
N1799       N  0.54595720  0.24393879  0.58301636    -0.38300
N1800       N  0.54102846  0.18443806  0.55189485    -0.40000
C1801       C  0.45327554  0.25648499  0.68537721    -0.04900
C1802       C  0.43102270  0.26190285  0.67544507     0.09200
C1803       C  0.42906351  0.26515931  0.65081880    -0.02300
C1804       C  0.44887885  0.26122281  0.63565503    -0.00600
C1805       C  0.47211867  0.25441985  0.64491690    -0.04200
C1806       C  0.47390185  0.25418924  0.67074909     0.02800
C1807       C  0.40911374  0.26435349  0.69064645     0.09700
C1808       C  0.40577364  0.27115337  0.64084780     0.35600
C1809       C  0.49632419  0.25449140  0.68365579     0.39000
C1810       C  0.39967423  0.28724342  0.69545344    -0.04500
C1811       C  0.37624148  0.28964005  0.70454779     0.02600
C1812       C  0.36232134  0.26904049  0.70916049    -0.04100
C1813       C  0.37277255  0.24617594  0.70661165    -0.00400
C1814       C  0.39604317  0.24384341  0.69725196    -0.02900
C1815       C  0.41389746  0.30827770  0.69017458     0.36300
C1816       C  0.35966864  0.22497572  0.71386353     0.39900
C1817       C  0.36612720  0.31326924  0.70789093     0.39100
C1818       C  0.40628198  0.22027347  0.69396160     0.36000
C1819       C  0.45494144  0.25401405  0.71114199     0.36700
C1820       C  0.44351658  0.26214762  0.61035965     0.39900
N1821       N  0.35812232  0.33215283  0.71053968    -0.38100
N1822       N  0.42538728  0.32496037  0.68596134    -0.39700
N1823       N  0.34928706  0.20807362  0.71973590    -0.37500
N1824       N  0.41425974  0.20133734  0.69167557    -0.39900
N1825       N  0.38722993  0.27583911  0.63301548    -0.39600
N1826       N  0.43701424  0.26332331  0.59081410    -0.37300
N1827       N  0.51355186  0.25539943  0.69504856    -0.38300
N1828       N  0.45619369  0.25198494  0.73163949    -0.40000
C1829       C  0.23217285  0.83395823  0.95624501    -0.04900
C1830       C  0.25230170  0.83408774  0.94140624     0.09200
C1831       C  0.27290628  0.84601443  0.94890425    -0.02300
C1832       C  0.27275496  0.86051842  0.96965822    -0.00600
C1833       C  0.25244965  0.86080267  0.98595505    -0.04200
C1834       C  0.23219495  0.84647932  0.97829292     0.02800
C1835       C  0.25163134  0.82312157  0.91686063     0.09700
C1836       C  0.29436716  0.84403368  0.93421957     0.35600
C1837       C  0.21103268  0.84327010  0.99298052     0.39000
C1838       C  0.24812715  0.83784440  0.89675489    -0.04500
C1839       C  0.25046718  0.82846581  0.87343093     0.02600
C1840       C  0.25524658  0.80381560  0.86982944    -0.04100
C1841       C  0.25801262  0.78894942  0.89025072    -0.00400
C1842       C  0.25659538  0.79868782  0.91352501    -0.02900
C1843       C  0.24240635  0.86290111  0.90016668     0.36300
C1844       C  0.26207149  0.76347840  0.88763315     0.39900
C1845       C  0.24933413  0.84468192  0.85330105     0.39100
C1846       C  0.26067802  0.78365782  0.93418049     0.36000
C1847       C  0.21132450  0.82035938  0.94879554     0.36700
C1848       C  0.29287909  0.87674685  0.97078195     0.39900
N1849       N  0.24864932  0.85771280  0.83730726    -0.38100
N1850       N  0.23772127  0.88284925  0.90291167    -0.39700
N1851       N  0.26537544  0.74315896  0.88567137    -0.37500
N1852       N  0.26398542  0.77173890  0.95069451    -0.39900
N1853       N  0.31139949  0.84232989  0.92257350    -0.39600
N1854       N  0.30938730  0.88920484  0.96984607    -0.37300
N1855       N  0.19367146  0.83924482  0.00352055    -0.38300
N1856       N  0.19480826  0.80937365  0.94291632    -0.40000
C1857       C  0.35030541  0.94076489  0.04345771    -0.04900
C1858       C  0.33928057  0.93649113  0.02118381     0.09200
C1859       C  0.35113591  0.94351414  0.00004587    -0.02300
C1860       C  0.37432418  0.95344142  0.00107824    -0.00600
C1861       C  0.38594795  0.95642604  0.02326450    -0.04200
C1862       C  0.37361233  0.95053667  0.04450786     0.02800
C1863       C  0.31619701  0.92267019  0.01980627     0.09700
C1864       C  0.33961602  0.94027559  0.97711563     0.35600
C1865       C  0.38535501  0.95329382  0.06739254     0.39000
C1866       C  0.29465332  0.93397950  0.01397551    -0.04500
C1867       C  0.27309778  0.92073092  0.01145863     0.02600
C1868       C  0.27291031  0.89483389  0.01295167    -0.04100
C1869       C  0.29529615  0.88420185  0.02055026    -0.00400
C1870       C  0.31626669  0.89800041  0.02384090    -0.02900
C1871       C  0.29471232  0.95980979  0.01109695     0.36300
C1872       C  0.29851694  0.85856458  0.02272532     0.39900
C1873       C  0.25172415  0.93523675  0.00965416     0.39100
C1874       C  0.33873877  0.88644175  0.03000719     0.36000
C1875       C  0.33778215  0.93458510  0.06528166     0.36700
C1876       C  0.38614944  0.96081715  0.97921385     0.39900
N1877       N  0.23539833  0.94792159  0.00878673    -0.38100
N1878       N  0.29478329  0.98034572  0.00873822    -0.39700
N1879       N  0.30309086  0.83849706  0.02461879    -0.37500
N1880       N  0.35664011  0.87731391  0.03485977    -0.39900
N1881       N  0.33048394  0.93801186  0.95874842    -0.39600
N1882       N  0.39554830  0.96672268  0.96177582    -0.37300
N1883       N  0.39476929  0.95540350  0.08563876    -0.38300
N1884       N  0.32775789  0.92959794  0.08266049    -0.40000
C1885       C  0.18373055  0.90567492  0.01260600    -0.04900
C1886       C  0.18164056  0.91636998  0.99022641     0.09200
C1887       C  0.20094361  0.91553839  0.97433827    -0.02300
C1888       C  0.22271030  0.90435364  0.98089848    -0.00600
C1889       C  0.22551344  0.89236297  0.00362170    -0.04200
C1890       C  0.20428534  0.89231454  0.01865492     0.02800
C1891       C  0.15828167  0.92754551  0.98335837     0.09700
C1892       C  0.19846675  0.92690100  0.95119952     0.35600
C1893       C  0.20063322  0.87669379  0.03888806     0.39000
C1894       C  0.15397117  0.95186504  0.98829633    -0.04500
C1895       C  0.13089399  0.96153075  0.98515296     0.02600
C1896       C  0.11169136  0.94664677  0.97806587    -0.04100
C1897       C  0.11618207  0.92243166  0.97250003    -0.00400
C1898       C  0.13949885  0.91303412  0.97475605    -0.02900
C1899       C  0.17302133  0.96663732  0.99780752     0.36300
C1900       C  0.09684405  0.90720544  0.96435051     0.39900
C1901       C  0.12673164  0.98659444  0.99033750     0.39100
C1902       C  0.14415030  0.88823135  0.96883459     0.36000
C1903       C  0.16378132  0.90770969  0.02929471     0.36700
C1904       C  0.24239659  0.90696035  0.96417609     0.39900
N1905       N  0.12342296  0.00661109  0.99433868    -0.38100
N1906       N  0.18809334  0.97846046  0.00559979    -0.39700
N1907       N  0.08139914  0.89505845  0.95787484    -0.37500
N1908       N  0.14798103  0.86848267  0.96404376    -0.39900
N1909       N  0.19647539  0.93601708  0.93279981    -0.39600
N1910       N  0.25733988  0.91024052  0.95024012    -0.37300
N1911       N  0.19612594  0.86446502  0.05489591    -0.38300
N1912       N  0.14795068  0.90942801  0.04252290    -0.40000
C1913       C  0.22229390  0.82256982  0.11336419    -0.04900
C1914       C  0.24481898  0.83000156  0.10471274     0.09200
C1915       C  0.26526117  0.82728093  0.11917886    -0.02300
C1916       C  0.26320011  0.81717177  0.14215558    -0.00600
C1917       C  0.24049778  0.81033631  0.15113437    -0.04200
C1918       C  0.22005853  0.81314310  0.13656280     0.02800
C1919       C  0.24686721  0.84144757  0.08060028     0.09700
C1920       C  0.28846862  0.83475515  0.11026775     0.35600
C1921       C  0.19649013  0.80688811  0.14551921     0.39000
C1922       C  0.24775373  0.86631638  0.07872822    -0.04500
C1923       C  0.24822476  0.87751983  0.05614817     0.02600
C1924       C  0.24844764  0.86388273  0.03410451    -0.04100
C1925       C  0.24943491  0.83815050  0.03697549    -0.00400
C1926       C  0.24787484  0.82746145  0.05989433    -0.02900
C1927       C  0.24719399  0.88056580  0.10047007     0.36300
C1928       C  0.25431380  0.82161944  0.01764109     0.39900
C1929       C  0.24576198  0.90332873  0.05663108     0.39100
C1930       C  0.24813953  0.80160521  0.06247844     0.36000
C1931       C  0.20128117  0.82436299  0.09837763     0.36700
C1932       C  0.28463244  0.81281815  0.15604373     0.39900
N1933       N  0.24317142  0.92369513  0.05908031    -0.38100
N1934       N  0.24675897  0.89186332  0.11776928    -0.39700
N1935       N  0.25864315  0.80749720  0.00314353    -0.37500
N1936       N  0.24839907  0.78105245  0.06466312    -0.39900
N1937       N  0.30695356  0.84081035  0.10316403    -0.39600
N1938       N  0.30171106  0.80918109  0.16708415    -0.37300
N1939       N  0.17762887  0.80193734  0.15248054    -0.38300
N1940       N  0.18421750  0.82524226  0.08677980    -0.40000
C1941       C  0.34360766  0.88873990  0.25550652    -0.04900
C1942       C  0.32902100  0.90934166  0.25509252     0.09200
C1943       C  0.30402872  0.90662790  0.25310785    -0.02300
C1944       C  0.29367321  0.88359387  0.25132097    -0.00600
C1945       C  0.30827653  0.86281843  0.25094329    -0.04200
C1946       C  0.33341186  0.86567978  0.25320554     0.02800
C1947       C  0.34030514  0.93389818  0.25493614     0.09700
C1948       C  0.28895417  0.92768785  0.25256546     0.35600
C1949       C  0.34909057  0.84505949  0.25215515     0.39000
C1950       C  0.35122746  0.94233734  0.23416555    -0.04500
C1951       C  0.36523128  0.96348943  0.23436952     0.02600
C1952       C  0.36548068  0.97964391  0.25473698    -0.04100
C1953       C  0.35266221  0.97072597  0.27544452    -0.00400
C1954       C  0.34114207  0.94803397  0.27553514    -0.02900
C1955       C  0.34882634  0.92824202  0.21241402     0.36300
C1956       C  0.34991758  0.98460938  0.29711206     0.39900
C1957       C  0.38116553  0.96519973  0.21414444     0.39100
C1958       C  0.32972558  0.93908928  0.29706008     0.36000
C1959       C  0.36930769  0.89137667  0.25799091     0.36700
C1960       C  0.26782905  0.88144375  0.25047840     0.39900
N1961       N  0.39340302  0.96483308  0.19750359    -0.38100
N1962       N  0.34686889  0.91705165  0.19515474    -0.39700
N1963       N  0.34619848  0.99419929  0.31503527    -0.37500
N1964       N  0.32057254  0.93194206  0.31415711    -0.39900
N1965       N  0.27693626  0.94450124  0.25215643    -0.39600
N1966       N  0.24720640  0.87975602  0.24983378    -0.37300
N1967       N  0.36167471  0.82867139  0.25127015    -0.38300
N1968       N  0.38979664  0.89353087  0.25996992    -0.40000
C1969       C  0.17904043  0.54907922  0.25090503    -0.04900
C1970       C  0.16637989  0.57045749  0.25414995     0.09200
C1971       C  0.14144347  0.57022695  0.25260476    -0.02300
C1972       C  0.12895261  0.54899775  0.24701506    -0.00600
C1973       C  0.14114150  0.52640469  0.24326248    -0.04200
C1974       C  0.16691641  0.52718391  0.24608963     0.02800
C1975       C  0.17896718  0.59380645  0.25877226     0.09700
C1976       C  0.12852459  0.59258800  0.25586607     0.35600
C1977       C  0.18199461  0.50616153  0.24613512     0.39000
C1978       C  0.18673564  0.60798970  0.23944457    -0.04500
C1979       C  0.19435988  0.63174183  0.24324871     0.02600
C1980       C  0.19509302  0.64137546  0.26657325    -0.04100
C1981       C  0.18813253  0.62687427  0.28605603    -0.00400
C1982       C  0.18009256  0.60321035  0.28214701    -0.02900
C1983       C  0.18707686  0.59817999  0.21551818     0.36300
C1984       C  0.18793571  0.63671251  0.30999960     0.39900
C1985       C  0.20163457  0.64619475  0.22301181     0.39100
C1986       C  0.17259817  0.58855014  0.30212798     0.36000
C1987       C  0.20493666  0.54971077  0.25309083     0.36700
C1988       C  0.10353928  0.55202573  0.24276472     0.39900
N1989       N  0.20724651  0.65770259  0.20680189    -0.38100
N1990       N  0.18794314  0.59075250  0.19627034    -0.39700
N1991       N  0.18757381  0.64460384  0.32908852    -0.37500
N1992       N  0.16665359  0.57678588  0.31803613    -0.39900
N1993       N  0.11835530  0.61041226  0.25840557    -0.39600
N1994       N  0.08369353  0.55663855  0.23921268    -0.37300
N1995       N  0.19518116  0.49023898  0.24702502    -0.38300
N1996       N  0.22555176  0.55023626  0.25484106    -0.40000
C1997       C  0.10525299  0.72090378  0.18449202    -0.04900
C1998       C  0.09612908  0.74326242  0.17727848     0.09200
C1999       C  0.10933246  0.76419206  0.18224322    -0.02300
C2000       C  0.13180116  0.76274389  0.19367446    -0.00600
C2001       C  0.14147664  0.74025110  0.20001977    -0.04200
C2002       C  0.12785775  0.71934670  0.19561460     0.02800
C2003       C  0.07302898  0.74471370  0.16357239     0.09700
C2004       C  0.09957245  0.78728451  0.17576899     0.35600
C2005       C  0.13730787  0.69603685  0.20187080     0.39000
C2006       C  0.05093116  0.74416986  0.17539256    -0.04500
C2007       C  0.02906914  0.74558761  0.16255574     0.02600
C2008       C  0.02873087  0.74576232  0.13666267    -0.04100
C2009       C  0.05204081  0.74738537  0.12536793    -0.00400
C2010       C  0.07350864  0.74703977  0.13873529    -0.02900
C2011       C  0.05089103  0.74306681  0.20131037     0.36300
C2012       C  0.05509124  0.74703480  0.09966195     0.39900
C2013       C  0.00803637  0.74939430  0.17726514     0.39100
C2014       C  0.09659259  0.74814798  0.12672721     0.36000
C2015       C  0.09135332  0.69938577  0.18055965     0.36700
C2016       C  0.14445269  0.78453912  0.19979989     0.39900
N2017       N  0.99202996  0.75290041  0.18994594    -0.38100
N2018       N  0.05094317  0.74224080  0.22193303    -0.39700
N2019       N  0.05956316  0.74636445  0.07950947    -0.37500
N2020       N  0.11497676  0.74902586  0.11723588    -0.39900
N2021       N  0.09170813  0.80567656  0.17060672    -0.39600
N2022       N  0.15450879  0.80190553  0.20483237    -0.37300
N2023       N  0.14478812  0.67743603  0.20687470    -0.38300
N2024       N  0.08041377  0.68204213  0.17783595    -0.40000
C2025       C  0.97529630  0.69793696  0.07806774    -0.04900
C2026       C  0.99187555  0.67925702  0.07771190     0.09200
C2027       C  0.01318905  0.68163704  0.09048822    -0.02300
C2028       C  0.01771008  0.70213605  0.10469012    -0.00600
C2029       C  0.00192442  0.72278546  0.10425052    -0.04200
C2030       C  0.98031536  0.71956405  0.09031720     0.02800
C2031       C  0.98682375  0.65639059  0.06449716     0.09700
C2032       C  0.03021349  0.66192820  0.08984096     0.35600
C2033       C  0.96310190  0.73864813  0.08694932     0.39000
C2034       C  0.99310797  0.65412017  0.04019879    -0.04500
C2035       C  0.99141480  0.63173373  0.02862452     0.02600
C2036       C  0.98348322  0.61139923  0.04131806    -0.04100
C2037       C  0.97630472  0.61390116  0.06540189    -0.00400
C2038       C  0.97786429  0.63632531  0.07689158    -0.02900
C2039       C  0.00201543  0.67471920  0.02729779     0.36300
C2040       C  0.96718814  0.59337884  0.07835117     0.39900
C2041       C  0.99911688  0.62938379  0.00401122     0.39100
C2042       C  0.97062332  0.63874433  0.10163689     0.36000
C2043       C  0.95276891  0.69475071  0.06558182     0.36700
C2044       C  0.03730933  0.69904300  0.12122224     0.39900
N2045       N  0.00533651  0.62747975  0.98439862    -0.38100
N2046       N  0.00910530  0.69110735  0.01689342    -0.39700
N2047       N  0.95993094  0.57696004  0.08860707    -0.37500
N2048       N  0.96480807  0.64071369  0.12136552    -0.39900
N2049       N  0.04365047  0.64621790  0.08934846    -0.39600
N2050       N  0.05288825  0.69486439  0.13411060    -0.37300
N2051       N  0.94881068  0.75302218  0.08292040    -0.38300
N2052       N  0.93479392  0.69209669  0.05573048    -0.40000
C2053       C  0.99434206  0.85290167  0.06282158    -0.04900
C2054       C  0.01538590  0.83977114  0.06750462     0.09200
C2055       C  0.03782076  0.85011400  0.06218527    -0.02300
C2056       C  0.03927467  0.87374620  0.05334369    -0.00600
C2057       C  0.01822745  0.88733298  0.04974761    -0.04200
C2058       C  0.99574813  0.87663824  0.05434747     0.02800
C2059       C  0.01408723  0.81594039  0.07999166     0.09700
C2060       C  0.05942577  0.83627992  0.06581073     0.35600
C2061       C  0.97390083  0.88985839  0.04980191     0.39000
C2062       C  0.01073786  0.79465744  0.06724463    -0.04500
C2063       C  0.00932498  0.77224574  0.07915554     0.02600
C2064       C  0.00898612  0.77074636  0.10499976    -0.04100
C2065       C  0.01433509  0.79299900  0.11721469    -0.00400
C2066       C  0.01696582  0.81487203  0.10475372    -0.02900
C2067       C  0.00959957  0.79591680  0.04137592     0.36300
C2068       C  0.01470211  0.79502553  0.14300997     0.39900
C2069       C  0.01068361  0.75156941  0.06363693     0.39100
C2070       C  0.02146223  0.83697426  0.11770852     0.36000
C2071       C  0.97109350  0.84191760  0.06608562     0.36700
C2072       C  0.06253500  0.88434117  0.04884499     0.39900
N2073       N  0.01235509  0.73578772  0.05036440    -0.38100
N2074       N  0.00877693  0.79695519  0.02078113    -0.39700
N2075       N  0.01510048  0.79877582  0.16330994    -0.37500
N2076       N  0.02498241  0.85458701  0.12795320    -0.39900
N2077       N  0.07658383  0.82509296  0.06862178    -0.39600
N2078       N  0.08111199  0.89278117  0.04530445    -0.37300
N2079       N  0.95649361  0.90042815  0.04623017    -0.38300
N2080       N  0.95223390  0.83360316  0.06802323    -0.40000
C2081       C  0.23994402  0.63708697  0.57581557    -0.04900
C2082       C  0.23811030  0.66191878  0.57757062     0.09200
C2083       C  0.23896868  0.67573965  0.55679056    -0.02300
C2084       C  0.24101554  0.66491089  0.53390630    -0.00600
C2085       C  0.24165959  0.63909909  0.53117124    -0.04200
C2086       C  0.24197696  0.62573289  0.55332656     0.02800
C2087       C  0.23581954  0.67348993  0.60170575     0.09700
C2088       C  0.23872068  0.70161488  0.55927780     0.35600
C2089       C  0.24209404  0.59981603  0.55396240     0.39000
C2090       C  0.25646590  0.67887420  0.61511804    -0.04500
C2091       C  0.25435906  0.68797190  0.63856144     0.02600
C2092       C  0.23150790  0.69234552  0.64862346    -0.04100
C2093       C  0.21086304  0.68786944  0.63471779    -0.00400
C2094       C  0.21303183  0.67817816  0.61153086    -0.02900
C2095       C  0.27990967  0.67538801  0.60454036     0.36300
C2096       C  0.18725442  0.69287593  0.64431658     0.39900
C2097       C  0.27579751  0.69369787  0.65194628     0.39100
C2098       C  0.19170088  0.67297412  0.59782233     0.36000
C2099       C  0.23881413  0.62298888  0.59758313     0.36700
C2100       C  0.24478940  0.68158324  0.51447529     0.39900
N2101       N  0.29287673  0.69829387  0.66264503    -0.38100
N2102       N  0.29857758  0.67278117  0.59596700    -0.39700
N2103       N  0.16841096  0.69703082  0.65183681    -0.37500
N2104       N  0.17443335  0.66900722  0.58718998    -0.39900
N2105       N  0.23873107  0.72218827  0.56134437    -0.39600
N2106       N  0.24814532  0.69587724  0.49992127    -0.37300
N2107       N  0.24177475  0.57930761  0.55652085    -0.38300
N2108       N  0.23773502  0.61181305  0.61490223    -0.40000
C2109       C  0.34740902  0.56867914  0.54225179    -0.04900
C2110       C  0.33780280  0.57343933  0.51949661     0.09200
C2111       C  0.35157672  0.56847873  0.49895468    -0.02300
C2112       C  0.37532031  0.56023569  0.50117185    -0.00600
C2113       C  0.38532741  0.55623397  0.52401111    -0.04200
C2114       C  0.37098489  0.55994717  0.54453687     0.02800
C2115       C  0.31391663  0.58551092  0.51730907     0.09700
C2116       C  0.34122742  0.57140858  0.47544865     0.35600
C2117       C  0.38058575  0.55536026  0.56810439     0.39000
C2118       C  0.31216122  0.61008348  0.52148056    -0.04500
C2119       C  0.29020214  0.62219748  0.51837737     0.02600
C2120       C  0.26874719  0.60985411  0.51057351    -0.04100
C2121       C  0.27082699  0.58406695  0.50897468    -0.00400
C2122       C  0.29329224  0.57251465  0.51158954    -0.02900
C2123       C  0.33371849  0.62329002  0.52773578     0.36300
C2124       C  0.25050675  0.56807763  0.50693712     0.39900
C2125       C  0.29147540  0.64799875  0.52077265     0.39100
C2126       C  0.29524906  0.54671658  0.50919950     0.36000
C2127       C  0.33291094  0.57290531  0.56332854     0.36700
C2128       C  0.38912515  0.55513604  0.47979415     0.39900
N2129       N  0.29453345  0.66835014  0.52283016    -0.38100
N2130       N  0.35089996  0.63373795  0.53261610    -0.39700
N2131       N  0.23498783  0.55439917  0.50582183    -0.37500
N2132       N  0.29684482  0.52618202  0.50739803    -0.39900
N2133       N  0.33317949  0.57321613  0.45653995    -0.39600
N2134       N  0.40007714  0.55111753  0.46271228    -0.37300
N2135       N  0.38817740  0.55159313  0.58691346    -0.38300
N2136       N  0.32122955  0.57633377  0.58005022    -0.40000
C2137       C  0.17954710  0.59427690  0.50618894    -0.04900
C2138       C  0.17870612  0.58430228  0.48333451     0.09200
C2139       C  0.19902902  0.58547665  0.46876924    -0.02300
C2140       C  0.22022784  0.59690407  0.47684769    -0.00600
C2141       C  0.22150463  0.60877166  0.49985805    -0.04200
C2142       C  0.19968892  0.60752159  0.51395864     0.02800
C2143       C  0.15557368  0.57348546  0.47477158     0.09700
C2144       C  0.19811348  0.57454066  0.44527759     0.35600
C2145       C  0.19499126  0.62173797  0.53502004     0.39000
C2146       C  0.13669749  0.58856386  0.46748891    -0.04500
C2147       C  0.11322358  0.57944257  0.46499512     0.02600
C2148       C  0.10852053  0.55495235  0.46908959    -0.04100
C2149       C  0.12779394  0.53960800  0.47493385    -0.00400
C2150       C  0.15116575  0.54887042  0.47780649    -0.02900
C2151       C  0.14145023  0.61367884  0.46320724     0.36300
C2152       C  0.12334964  0.51452041  0.47966074     0.39900
C2153       C  0.09388264  0.59535599  0.45843606     0.39100
C2154       C  0.17057833  0.53327260  0.48488977     0.36000
C2155       C  0.15859696  0.59173998  0.52153074     0.36700
C2156       C  0.24081531  0.59514321  0.46111059     0.39900
N2157       N  0.07844120  0.60809741  0.45330984    -0.38100
N2158       N  0.14538596  0.63367470  0.45972022    -0.39700
N2159       N  0.11978183  0.49453065  0.48354733    -0.37500
N2160       N  0.18612116  0.52086454  0.49049150    -0.39900
N2161       N  0.19745129  0.56576848  0.42658672    -0.39600
N2162       N  0.25649512  0.59249097  0.44785832    -0.37300
N2163       N  0.18947884  0.63277043  0.55160893    -0.38300
N2164       N  0.14189770  0.58968772  0.53359237    -0.40000
C2165       C  0.22538140  0.66655532  0.45262663    -0.04900
C2166       C  0.24635670  0.66902315  0.43927924     0.09200
C2167       C  0.26764569  0.65931247  0.44779107    -0.02300
C2168       C  0.26759514  0.64409853  0.46786237    -0.00600
C2169       C  0.24674389  0.64209934  0.48330057    -0.04200
C2170       C  0.22566605  0.65460245  0.47487243     0.02800
C2171       C  0.24611461  0.67960814  0.41480865     0.09700
C2172       C  0.28963281  0.66364644  0.43439727     0.35600
C2173       C  0.20395646  0.65651353  0.48898956     0.39000
C2174       C  0.25172372  0.70387645  0.41142436    -0.04500
C2175       C  0.25567625  0.71280660  0.38822834     0.02600
C2176       C  0.25481338  0.69724590  0.36819995    -0.04100
C2177       C  0.24818180  0.67301826  0.37172876    -0.00400
C2178       C  0.24363908  0.66439023  0.39491469    -0.02900
C2179       C  0.25404443  0.71948304  0.43196709     0.36300
C2180       C  0.24695091  0.65650317  0.35178437     0.39900
C2181       C  0.26002517  0.73818187  0.38512634     0.39100
C2182       C  0.23715360  0.63952645  0.39850155     0.36000
C2183       C  0.20331769  0.67648304  0.44327054     0.36700
C2184       C  0.28837764  0.62875905  0.46875324     0.39900
N2185       N  0.26341187  0.75843156  0.38265780    -0.38100
N2186       N  0.25595985  0.73190907  0.44836572    -0.39700
N2187       N  0.24593086  0.64325088  0.33595274    -0.37500
N2188       N  0.23191958  0.61973712  0.40142110    -0.39900
N2189       N  0.30702200  0.66718617  0.42372824    -0.39600
N2190       N  0.30540326  0.61707739  0.46760757    -0.37300
N2191       N  0.18622521  0.65937243  0.49929383    -0.38300
N2192       N  0.18573728  0.68427852  0.43571465    -0.40000
C2193       C  0.58290085  0.46788253  0.20333735    -0.04900
C2194       C  0.58377570  0.48416960  0.18442464     0.09200
C2195       C  0.59480307  0.50628856  0.18783582    -0.02300
C2196       C  0.60746457  0.51126470  0.20902381    -0.00600
C2197       C  0.60569794  0.49586571  0.22989515    -0.04200
C2198       C  0.59301530  0.47366184  0.22587219     0.02800
C2199       C  0.57463646  0.47803406  0.15998581     0.09700
C2200       C  0.59468362  0.52349115  0.16828389     0.35600
C2201       C  0.58934098  0.45629104  0.24470064     0.39000
C2202       C  0.55029343  0.48140394  0.15439917    -0.04500
C2203       C  0.54276443  0.48136127  0.13036834     0.02600
C2204       C  0.55969269  0.47874159  0.11178192    -0.04100
C2205       C  0.58376807  0.47383283  0.11741184    -0.00400
C2206       C  0.59112749  0.47303245  0.14146775    -0.02900
C2207       C  0.53326602  0.48620492  0.17333745     0.36300
C2208       C  0.60100421  0.46994135  0.09842377     0.39900
C2209       C  0.51777103  0.48527416  0.12472856     0.39100
C2210       C  0.61590355  0.46803954  0.14722499     0.36000
C2211       C  0.57135258  0.44496455  0.19946428     0.36700
C2212       C  0.62527060  0.52981896  0.20587607     0.39900
N2213       N  0.49781317  0.48830970  0.12023581    -0.38100
N2214       N  0.51972111  0.49004904  0.18849732    -0.39700
N2215       N  0.61473600  0.46684119  0.08325474    -0.37500
N2216       N  0.63565040  0.46396786  0.15182469    -0.39900
N2217       N  0.59472166  0.53703465  0.15270384    -0.39600
N2218       N  0.63979785  0.54395508  0.20176221    -0.37300
N2219       N  0.58512524  0.44178484  0.25878541    -0.38300
N2220       N  0.56209974  0.42673523  0.19630754    -0.40000
C2221       C  0.55662567  0.49453078  0.35804190    -0.04900
C2222       C  0.56381127  0.51526868  0.34556391     0.09200
C2223       C  0.56018127  0.53785575  0.35634690    -0.02300
C2224       C  0.55051388  0.53957839  0.37970851    -0.00600
C2225       C  0.54492011  0.51866373  0.39281061    -0.04200
C2226       C  0.54756224  0.49617968  0.38155982     0.02800
C2227       C  0.57697768  0.51305385  0.32201402     0.09700
C2228       C  0.56660129  0.55934345  0.34339616     0.35600
C2229       C  0.54021416  0.47461950  0.39393360     0.39000
C2230       C  0.56490144  0.50749905  0.30077196    -0.04500
C2231       C  0.57755604  0.50364252  0.27895988     0.02600
C2232       C  0.60347538  0.50422167  0.27804291    -0.04100
C2233       C  0.61501871  0.51092047  0.30023657    -0.00400
C2234       C  0.60189301  0.51554129  0.32139726    -0.02900
C2235       C  0.53892969  0.50640418  0.30141497     0.36300
C2236       C  0.64083676  0.51072490  0.30293651     0.39900
C2237       C  0.56262507  0.50088919  0.25805581     0.39100
C2238       C  0.61432315  0.52201217  0.34325653     0.36000
C2239       C  0.55826433  0.47134050  0.34664303     0.36700
C2240       C  0.54688500  0.56290993  0.39039592     0.39900
N2241       N  0.54957605  0.49933743  0.24210853    -0.38100
N2242       N  0.51825253  0.50558095  0.30200092    -0.39700
N2243       N  0.66111622  0.51047759  0.30701138    -0.37500
N2244       N  0.62417420  0.52725252  0.36062763    -0.39900
N2245       N  0.57177550  0.57648551  0.33307502    -0.39600
N2246       N  0.54386903  0.58157653  0.39877745    -0.37300
N2247       N  0.53430593  0.45744018  0.40379011    -0.38300
N2248       N  0.55898550  0.45269811  0.33773403    -0.40000
C2249       C  0.65004615  0.43885440  0.27749297    -0.04900
C2250       C  0.66330300  0.43160336  0.25759881     0.09200
C2251       C  0.66350865  0.44624055  0.23738312    -0.02300
C2252       C  0.65107970  0.46843307  0.23708095    -0.00600
C2253       C  0.63648675  0.47648124  0.25699116    -0.04200
C2254       C  0.63550628  0.45966407  0.27680748     0.02800
C2255       C  0.67531481  0.40734818  0.25736843     0.09700
C2256       C  0.67658020  0.43808231  0.21645811     0.35600
C2257       C  0.61773146  0.46031505  0.29560652     0.39000
C2258       C  0.66159377  0.38654704  0.25348195    -0.04500
C2259       C  0.67231871  0.36363860  0.25418337     0.02600
C2260       C  0.69720343  0.36100836  0.25894530    -0.04100
C2261       C  0.71094879  0.38216084  0.26257060    -0.00400
C2262       C  0.70002644  0.40504541  0.26179591    -0.02900
C2263       C  0.63612565  0.38878287  0.24901612     0.36300
C2264       C  0.73652829  0.38073866  0.26657931     0.39900
C2265       C  0.65722071  0.34286825  0.25051631     0.39100
C2266       C  0.71419585  0.42640044  0.26574652     0.36000
C2267       C  0.65028580  0.42363963  0.29855717     0.36700
C2268       C  0.65456220  0.48254984  0.21571058     0.39900
N2269       N  0.64506603  0.32640994  0.24743482    -0.38100
N2270       N  0.61580783  0.39060119  0.24557526    -0.39700
N2271       N  0.75694320  0.37976132  0.26982452    -0.37500
N2272       N  0.72543707  0.44349036  0.26884883    -0.39900
N2273       N  0.68692902  0.43150562  0.19980256    -0.39600
N2274       N  0.65906584  0.49221979  0.19803071    -0.37300
N2275       N  0.60383183  0.45929685  0.31089086    -0.38300
N2276       N  0.65041072  0.41149831  0.31524661    -0.40000
C2277       C  0.77479608  0.33802207  0.38286237    -0.04900
C2278       C  0.76598702  0.32436119  0.40219050     0.09200
C2279       C  0.75968594  0.30024178  0.39834762    -0.02300
C2280       C  0.76102883  0.29021210  0.37520988    -0.00600
C2281       C  0.76894614  0.30414207  0.35565334    -0.04200
C2282       C  0.77633518  0.32796163  0.35973331     0.02800
C2283       C  0.76040618  0.33635435  0.42567833     0.09700
C2284       C  0.75117592  0.28588372  0.41811992     0.35600
C2285       C  0.78589434  0.34203000  0.34021005     0.39000
C2286       C  0.73957096  0.34997680  0.42780163    -0.04500
C2287       C  0.73455486  0.36318045  0.44881324     0.02600
C2288       C  0.74937028  0.36123775  0.47002715    -0.04100
C2289       C  0.77103642  0.34740487  0.46675996    -0.00400
C2290       C  0.77609451  0.33511974  0.44508282    -0.02900
C2291       C  0.72343569  0.35107490  0.40742959     0.36300
C2292       C  0.78813099  0.34400474  0.48587646     0.39900
C2293       C  0.71569376  0.38059085  0.44577193     0.39100
C2294       C  0.79734257  0.32036428  0.44286760     0.36000
C2295       C  0.78176577  0.36268108  0.38678345     0.36700
C2296       C  0.75301293  0.26585641  0.37133173     0.39900
N2297       N  0.70083654  0.39437469  0.44179323    -0.38100
N2298       N  0.71072158  0.35201236  0.39119880    -0.39700
N2299       N  0.80242852  0.34002091  0.50021671    -0.37500
N2300       N  0.81411992  0.30838394  0.44116465    -0.39900
N2301       N  0.74449416  0.27423013  0.43381230    -0.39600
N2302       N  0.74653048  0.24647166  0.36816041    -0.37300
N2303       N  0.79363411  0.35323035  0.32466173    -0.38300
N2304       N  0.78723632  0.38236340  0.39002001    -0.40000
C2305       C  0.64055454  0.43381439  0.46816022    -0.04900
C2306       C  0.65004986  0.42683046  0.49042439     0.09200
C2307       C  0.63582688  0.42932208  0.51113249    -0.02300
C2308       C  0.61237162  0.43866155  0.50962862    -0.00600
C2309       C  0.60269372  0.44534528  0.48725355    -0.04200
C2310       C  0.61695401  0.44272870  0.46653261     0.02800
C2311       C  0.67409996  0.41469394  0.49186805     0.09700
C2312       C  0.64537802  0.42204702  0.53403582     0.35600
C2313       C  0.60699609  0.44819969  0.44328027     0.39000
C2314       C  0.69539134  0.42787370  0.49354719    -0.04500
C2315       C  0.71804416  0.41629943  0.49515760     0.02600
C2316       C  0.72007787  0.39050057  0.49384311    -0.04100
C2317       C  0.69746293  0.37773606  0.49308682    -0.00400
C2318       C  0.67520999  0.38975713  0.49225915    -0.02900
C2319       C  0.69371514  0.45376963  0.49439360     0.36300
C2320       C  0.69598908  0.35197609  0.49074921     0.39900
C2321       C  0.73806416  0.43194933  0.50024027     0.39100
C2322       C  0.65295488  0.37627467  0.49095535     0.36000
C2323       C  0.65490667  0.43172135  0.44672026     0.36700
C2324       C  0.59849246  0.44190921  0.53129572     0.39900
N2325       N  0.75317097  0.44535949  0.50481346    -0.38100
N2326       N  0.69229089  0.47438124  0.49513661    -0.39700
N2327       N  0.69245769  0.33172727  0.48849117    -0.37500
N2328       N  0.63523719  0.36562249  0.48989513    -0.39900
N2329       N  0.65304060  0.41614621  0.55225517    -0.39600
N2330       N  0.58744020  0.44449491  0.54858877    -0.37300
N2331       N  0.59897453  0.45244443  0.42475224    -0.38300
N2332       N  0.66589718  0.43051661  0.42925174    -0.40000
C2333       C  0.80617063  0.40403420  0.51939031    -0.04900
C2334       C  0.81457077  0.41632505  0.49939300     0.09200
C2335       C  0.80026707  0.41709684  0.47892509    -0.02300
C2336       C  0.77749304  0.40577146  0.47838308    -0.00600
C2337       C  0.76880990  0.39125909  0.49797720    -0.04200
C2338       C  0.78506555  0.39001652  0.51823323     0.02800
C2339       C  0.83935831  0.42707935  0.49966795     0.09700
C2340       C  0.80919510  0.42978915  0.45813069     0.35600
C2341       C  0.78372342  0.37252343  0.53712786     0.39000
C2342       C  0.85967613  0.41203128  0.49981009    -0.04500
C2343       C  0.88292446  0.42179767  0.50161750     0.02600
C2344       C  0.88627328  0.44687448  0.50278980    -0.04100
C2345       C  0.86587654  0.46193212  0.50219363    -0.00400
C2346       C  0.84259738  0.45205536  0.50102540    -0.02900
C2347       C  0.85662750  0.38630999  0.49848809     0.36300
C2348       C  0.86873237  0.48769496  0.50192251     0.39900
C2349       C  0.90330848  0.40581953  0.50308099     0.39100
C2350       C  0.82187705  0.46761618  0.50155660     0.36000
C2351       C  0.82050002  0.40464483  0.54110530     0.36700
C2352       C  0.76319829  0.41051505  0.45738282     0.39900
N2353       N  0.91954051  0.39305794  0.50426275    -0.38100
N2354       N  0.85425870  0.36578789  0.49762709    -0.39700
N2355       N  0.87102121  0.50824428  0.50160612    -0.37500
N2356       N  0.80533876  0.48002764  0.50195369    -0.39900
N2357       N  0.81635387  0.43997204  0.44164062    -0.39600
N2358       N  0.75307584  0.41593896  0.44024864    -0.37300
N2359       N  0.78459844  0.35907084  0.55273438    -0.38300
N2360       N  0.83195441  0.40497679  0.55827214    -0.40000
C2361       C  0.33306644  0.55500177  0.77787862    -0.04900
C2362       C  0.33151345  0.56847956  0.75694596     0.09200
C2363       C  0.34331389  0.56060227  0.73642699    -0.02300
C2364       C  0.35928327  0.54114244  0.73742028    -0.00600
C2365       C  0.35949957  0.52503040  0.75765834    -0.04200
C2366       C  0.34582555  0.53311341  0.77814491     0.02800
C2367       C  0.31974817  0.59252456  0.75670857     0.09700
C2368       C  0.33987901  0.57363578  0.71422640     0.35600
C2369       C  0.34298285  0.51870392  0.79944928     0.39000
C2370       C  0.33403205  0.61320224  0.75853991    -0.04500
C2371       C  0.32398137  0.63600472  0.75490405     0.02600
C2372       C  0.29926720  0.63844797  0.74955201    -0.04100
C2373       C  0.28488992  0.61750586  0.74831965    -0.00400
C2374       C  0.29512587  0.59472796  0.75202396    -0.02900
C2375       C  0.35935704  0.61086546  0.76375696     0.36300
C2376       C  0.25945755  0.61912362  0.74350390     0.39900
C2377       C  0.33957676  0.65674047  0.75570880     0.39100
C2378       C  0.28035149  0.57344239  0.75092662     0.36000
C2379       C  0.32073636  0.56346085  0.79909849     0.36700
C2380       C  0.37726768  0.54163795  0.71881899     0.39900
N2381       N  0.35210687  0.67319852  0.75639172    -0.38100
N2382       N  0.37952676  0.60891986  0.76791156    -0.39700
N2383       N  0.23918590  0.62026398  0.73952267    -0.37500
N2384       N  0.26848086  0.55651090  0.75022242    -0.39900
N2385       N  0.33695474  0.58388891  0.69656469    -0.39600
N2386       N  0.39129830  0.54364110  0.70375179    -0.37300
N2387       N  0.33936941  0.50816895  0.81683225    -0.38300
N2388       N  0.31085467  0.57019333  0.81597194    -0.40000
C2389       C  0.35687228  0.43248706  0.76035174    -0.04900
C2390       C  0.33195567  0.43295166  0.76272869     0.09200
C2391       C  0.31997832  0.45486011  0.76250085    -0.02300
C2392       C  0.33274342  0.47664799  0.76020311    -0.00600
C2393       C  0.35873026  0.47714830  0.76012037    -0.04200
C2394       C  0.37019693  0.45395971  0.75912607     0.02800
C2395       C  0.31819912  0.40998512  0.76416381     0.09700
C2396       C  0.29395946  0.45473050  0.76363341     0.35600
C2397       C  0.39601082  0.45120215  0.75938210     0.39000
C2398       C  0.31048965  0.40097695  0.78640783    -0.04500
C2399       C  0.29927576  0.37841726  0.78778891     0.02600
C2400       C  0.29582287  0.36466515  0.76690764    -0.04100
C2401       C  0.30254998  0.37425490  0.74451376    -0.00400
C2402       C  0.31350515  0.39690945  0.74317315    -0.02900
C2403       C  0.31413498  0.41482954  0.80795440     0.36300
C2404       C  0.29776277  0.36106865  0.72272910     0.39900
C2405       C  0.29215775  0.36901992  0.81085769     0.39100
C2406       C  0.31981214  0.40698441  0.72016347     0.20800
C2407       C  0.36898524  0.40948685  0.76028230     0.36700
C2408       C  0.31779367  0.49717945  0.75520551     0.39900
N2409       N  0.28646514  0.36154765  0.82925581    -0.38100
N2410       N  0.31665691  0.42565726  0.82536371    -0.39700
N2411       N  0.29395711  0.35058644  0.70533702    -0.37500
N2412       N  0.32475201  0.41518659  0.70186513    -0.39900
N2413       N  0.27327565  0.45456261  0.76447658    -0.39600
N2414       N  0.30478823  0.51260839  0.75070031    -0.37300
N2415       N  0.41631263  0.44724003  0.75998811    -0.38300
N2416       N  0.37855001  0.39116019  0.76030565    -0.40000
C2417       C  0.40417121  0.49259463  0.82419153    -0.04900
C2418       C  0.41450226  0.51499906  0.82806095     0.09200
C2419       C  0.41373052  0.53202656  0.80983455    -0.02300
C2420       C  0.40318473  0.52651944  0.78746108    -0.00600
C2421       C  0.39029190  0.50438641  0.78343854    -0.04200
C2422       C  0.39006339  0.48821007  0.80372252     0.02800
C2423       C  0.42438857  0.52087817  0.85232669     0.09700
C2424       C  0.42382866  0.55552119  0.81430038     0.35600
C2425       C  0.37308036  0.46897688  0.80708086     0.39000
C2426       C  0.44917451  0.51933639  0.85682395    -0.04500
C2427       C  0.45787557  0.52099112  0.88044353     0.02600
C2428       C  0.44178153  0.52369171  0.89974024    -0.04100
C2429       C  0.41715008  0.52654938  0.89510669    -0.00400
C2430       C  0.40851395  0.52534980  0.87148999    -0.02900
C2431       C  0.46555381  0.51477783  0.83727106     0.36300
C2432       C  0.40063497  0.53037771  0.91473622     0.39900
C2433       C  0.48327141  0.51853326  0.88503401     0.39100
C2434       C  0.38310913  0.52782226  0.86694910     0.36000
C2435       C  0.40681945  0.47431198  0.84248571     0.36700
C2436       C  0.40665311  0.54411547  0.76881241     0.39900
N2437       N  0.50352985  0.51660444  0.88875178    -0.38100
N2438       N  0.47861252  0.51108716  0.82165475    -0.39700
N2439       N  0.38746294  0.53348026  0.93038921    -0.37500
N2440       N  0.36282906  0.52978246  0.86338528    -0.39900
N2441       N  0.43175763  0.57426609  0.81798612    -0.39600
N2442       N  0.41067270  0.55889691  0.75496166    -0.37300
N2443       N  0.35975778  0.45378912  0.81154799    -0.38300
N2444       N  0.40900092  0.45979758  0.85699805    -0.40000
C2445       C  0.42942983  0.49495866  0.71248847    -0.04900
C2446       C  0.41713833  0.49144027  0.69098958     0.09200
C2447       C  0.39219979  0.48936242  0.69145909    -0.02300
C2448       C  0.37925837  0.49149576  0.71309456    -0.00600
C2449       C  0.39098501  0.49685000  0.73554333    -0.04200
C2450       C  0.41692116  0.49697847  0.73458305     0.02800
C2451       C  0.43007371  0.48944837  0.66741220     0.09700
C2452       C  0.37957016  0.48649905  0.66893688     0.35600
C2453       C  0.43193944  0.49701147  0.75562061     0.39000
C2454       C  0.43295616  0.46687866  0.65649065    -0.04500
C2455       C  0.44067318  0.46512480  0.63249742     0.02600
C2456       C  0.44565955  0.48600083  0.61911629    -0.04100
C2457       C  0.44389168  0.50854087  0.63050248    -0.00400
C2458       C  0.43652037  0.51019075  0.65460869    -0.02900
C2459       C  0.42779139  0.44542690  0.67004946     0.36300
C2460       C  0.45004102  0.53013444  0.61756497     0.39900
C2461       C  0.44241032  0.44179739  0.62135135     0.39100
C2462       C  0.43594755  0.53327112  0.66633738     0.36000
C2463       C  0.45538918  0.49616158  0.71174922     0.36700
C2464       C  0.35345877  0.49025501  0.71068224     0.39900
N2465       N  0.44372015  0.42312008  0.61257551    -0.38100
N2466       N  0.42378011  0.42835353  0.68097234    -0.39700
N2467       N  0.45486739  0.54737899  0.60724793    -0.37500
N2468       N  0.43605746  0.55176032  0.67559480    -0.39900
N2469       N  0.36961605  0.48448532  0.65097067    -0.39600
N2470       N  0.33321537  0.48900154  0.70659639    -0.37300
N2471       N  0.44486609  0.49650906  0.77172738    -0.38300
N2472       N  0.47605718  0.49717354  0.71112667    -0.40000
C2473       C  0.74462707  0.19875394  0.09288192    -0.04900
C2474       C  0.74861424  0.17407816  0.09001559     0.09200
C2475       C  0.74964938  0.15918854  0.11026748    -0.02300
C2476       C  0.74561645  0.16868698  0.13321757    -0.00600
C2477       C  0.74130689  0.19349703  0.13627034    -0.04200
C2478       C  0.74143743  0.20854313  0.11590129     0.02800
C2479       C  0.74899297  0.16305571  0.06563951     0.09700
C2480       C  0.75430547  0.13383124  0.10735257     0.35600
C2481       C  0.73906484  0.23422686  0.11848361     0.39000
C2482       C  0.76977903  0.16287208  0.05172053    -0.04500
C2483       C  0.77017201  0.15117413  0.02924666     0.02600
C2484       C  0.75006538  0.13711308  0.02084750    -0.04100
C2485       C  0.72996957  0.13602399  0.03732384    -0.00400
C2486       C  0.72877308  0.15084560  0.05767418    -0.02900
C2487       C  0.79095038  0.17494484  0.06071689     0.36300
C2488       C  0.71191411  0.11751422  0.03743285     0.39900
C2489       C  0.79154399  0.15500099  0.01506363     0.39100
C2490       C  0.70693109  0.15208859  0.07191089     0.36000
C2491       C  0.74331681  0.21397791  0.07201813     0.36700
C2492       C  0.74506815  0.15254465  0.15347467     0.39900
N2493       N  0.80913081  0.15955657  0.00513542    -0.38100
N2494       N  0.80780691  0.18450144  0.06795598    -0.39700
N2495       N  0.69725786  0.10305530  0.03937457    -0.37500
N2496       N  0.68967222  0.15303149  0.08330975    -0.39900
N2497       N  0.75799264  0.11361861  0.10505377    -0.39600
N2498       N  0.74465779  0.13962496  0.16957428    -0.37300
N2499       N  0.73729222  0.25473042  0.12049895    -0.38300
N2500       N  0.74222374  0.22610888  0.05536223    -0.40000
C2501       C  0.65062237  0.05655694  0.00888931    -0.04900
C2502       C  0.66240652  0.06360876  0.98773325     0.09200
C2503       C  0.65145818  0.05914076  0.96552538    -0.02300
C2504       C  0.62827902  0.04910966  0.96450821    -0.00600
C2505       C  0.61545574  0.04435495  0.98578863    -0.04200
C2506       C  0.62703538  0.04755748  0.00797385     0.02800
C2507       C  0.68543642  0.07747248  0.98876534     0.09700
C2508       C  0.66410364  0.06515687  0.94370972     0.35600
C2509       C  0.61485400  0.04109168  0.02993555     0.39000
C2510       C  0.70741640  0.06589006  0.99169723    -0.04500
C2511       C  0.72913217  0.07905371  0.99292194     0.02600
C2512       C  0.72917158  0.10497858  0.99268857    -0.04100
C2513       C  0.70628768  0.11595960  0.98755551    -0.00400
C2514       C  0.68502419  0.10232017  0.98591759    -0.02900
C2515       C  0.70757583  0.03993355  0.99279446     0.36300
C2516       C  0.70314914  0.14167277  0.98643620     0.39900
C2517       C  0.75062848  0.06462067  0.99215372     0.39100
C2518       C  0.66207544  0.11412481  0.98265956     0.36000
C2519       C  0.66283981  0.05800663  0.03161039     0.36700
C2520       C  0.61764548  0.04425458  0.94147448     0.39900
N2521       N  0.76704358  0.05206766  0.99095329    -0.38100
N2522       N  0.70766013  0.01927742  0.99360888    -0.39700
N2523       N  0.69878618  0.16185371  0.98546170    -0.37500
N2524       N  0.64380111  0.12348686  0.98020327    -0.39900
N2525       N  0.67430645  0.07003889  0.92640438    -0.39600
N2526       N  0.60975276  0.04027231  0.92283564    -0.37300
N2527       N  0.60512297  0.03595942  0.04743861    -0.38300
N2528       N  0.67236408  0.05841341  0.04990980    -0.40000
C2529       C  0.84952607  0.04700336  0.00738334    -0.04900
C2530       C  0.84503972  0.07113458  0.01297263     0.09200
C2531       C  0.86381790  0.08581542  0.02127842    -0.02300
C2532       C  0.88714351  0.07654683  0.02346719    -0.00600
C2533       C  0.89177902  0.05247693  0.01749900    -0.04200
C2534       C  0.87282031  0.03764943  0.00968996     0.02800
C2535       C  0.82106951  0.08190017  0.00812023     0.09700
C2536       C  0.85912928  0.11063683  0.02712056     0.35600
C2537       C  0.87748908  0.01308762  0.00280596     0.39000
C2538       C  0.80318622  0.08206105  0.02558914    -0.04500
C2539       C  0.78108106  0.09368316  0.02139832     0.02600
C2540       C  0.77684553  0.10726635  0.99983922    -0.04100
C2541       C  0.79703785  0.10846021  0.98355080    -0.00400
C2542       C  0.81734021  0.09387029  0.98664300    -0.02900
C2543       C  0.80752448  0.06960694  0.04788863     0.36300
C2544       C  0.80047995  0.12703229  0.96593429     0.39900
C2545       C  0.76278256  0.09004403  0.03940081     0.39100
C2546       C  0.83548257  0.09223986  0.96801405     0.36000
C2547       C  0.83029728  0.03205489  0.99851350     0.36700
C2548       C  0.90632812  0.09173332  0.03205888     0.39900
N2549       N  0.74930991  0.08572571  0.05449094    -0.38100
N2550       N  0.81107406  0.05964619  0.06560128    -0.39700
N2551       N  0.80470488  0.14195977  0.95231578    -0.37500
N2552       N  0.84981263  0.09080954  0.95315256    -0.39900
N2553       N  0.85531160  0.13042690  0.03174098    -0.39600
N2554       N  0.92164258  0.10383470  0.03891430    -0.37300
N2555       N  0.88123390  0.99352384  0.99724477    -0.38300
N2556       N  0.81499662  0.02010116  0.99138459    -0.40000
C2557       C  0.18008698  0.89257747  0.74244934    -0.04900
C2558       C  0.17558256  0.90704414  0.76261360     0.09200
C2559       C  0.17902485  0.89749216  0.78566285    -0.02300
C2560       C  0.18608133  0.87348096  0.78854134    -0.00600
C2561       C  0.19030482  0.85885831  0.76840171    -0.04200
C2562       C  0.18732755  0.86857512  0.74528231     0.02800
C2563       C  0.16443364  0.93125579  0.75946395     0.09700
C2564       C  0.17538646  0.91216229  0.80665279     0.35600
C2565       C  0.19209907  0.85409447  0.72432436     0.39000
C2566       C  0.13983206  0.93285370  0.75539763    -0.04500
C2567       C  0.12846299  0.95530140  0.75367384     0.02600
C2568       C  0.14181256  0.97753273  0.75450520    -0.04100
C2569       C  0.16753798  0.97496927  0.75635171    -0.00400
C2570       C  0.17821562  0.95218825  0.75993249    -0.02900
C2571       C  0.12586223  0.91092142  0.75397369     0.36300
C2572       C  0.18424124  0.99447665  0.75291183     0.39900
C2573       C  0.10252137  0.95445433  0.75398614     0.39100
C2574       C  0.20383859  0.95004915  0.76367423     0.36000
C2575       C  0.17716646  0.90251281  0.71874112     0.36700
C2576       C  0.18792592  0.86352369  0.81237427     0.39900
N2577       N  0.08203384  0.95162223  0.75492766    -0.38100
N2578       N  0.11482021  0.89346575  0.75277315    -0.39700
N2579       N  0.19855998  0.00911994  0.74978960    -0.37500
N2580       N  0.22422442  0.94832048  0.76674862    -0.39900
N2581       N  0.17307263  0.92312879  0.82400854    -0.39600
N2582       N  0.18925210  0.85554711  0.83135831    -0.37300
N2583       N  0.19582506  0.84257261  0.70756858    -0.38300
N2584       N  0.17483736  0.91055769  0.69988574    -0.40000
C2585       C  0.16971239  0.05636003  0.77147652    -0.04900
C2586       C  0.17204283  0.06956849  0.75044274     0.09200
C2587       C  0.16135288  0.06120355  0.72959448    -0.02300
C2588       C  0.14536988  0.04173069  0.73030918    -0.00600
C2589       C  0.14415956  0.02589190  0.75079379    -0.04200
C2590       C  0.15705445  0.03434072  0.77159578     0.02800
C2591       C  0.18261677  0.09417455  0.75027445     0.09700
C2592       C  0.16516318  0.07440426  0.70748836     0.35600
C2593       C  0.15846648  0.02072422  0.79352365     0.39000
C2594       C  0.20718720  0.09761337  0.74594561    -0.04500
C2595       C  0.21612006  0.12068523  0.74080170     0.02600
C2596       C  0.20031433  0.14050077  0.73925987    -0.04100
C2597       C  0.17566635  0.13690720  0.74449821    -0.00400
C2598       C  0.16708699  0.11399058  0.75041509    -0.02900
C2599       C  0.22317471  0.07724172  0.74643527     0.36300
C2600       C  0.15863299  0.15643001  0.74300033     0.39900
C2601       C  0.24169129  0.12390368  0.73773442     0.39100
C2602       C  0.14193594  0.11056899  0.75601282     0.36000
C2603       C  0.18054709  0.06559048  0.79314176     0.36700
C2604       C  0.12807528  0.04231854  0.71116090     0.39900
N2605       N  0.26210592  0.12645305  0.73536434    -0.38100
N2606       N  0.23591484  0.06096879  0.74689349    -0.39700
N2607       N  0.14492029  0.17186920  0.74189735    -0.37500
N2608       N  0.12191144  0.10791634  0.76056096    -0.39900
N2609       N  0.16820829  0.08497675  0.69001839    -0.39600
N2610       N  0.11472849  0.04448304  0.69558708    -0.37300
N2611       N  0.16103183  0.01111471  0.81159687    -0.38300
N2612       N  0.18913560  0.07298242  0.81040563    -0.40000
C2613       C  0.06989736  0.01413294  0.64753360    -0.04900
C2614       C  0.07719636  0.99265401  0.65847444     0.09200
C2615       C  0.07560368  0.97103123  0.64560393    -0.02300
C2616       C  0.06873424  0.97107797  0.62136606    -0.00600
C2617       C  0.06277803  0.99282931  0.60984368    -0.04200
C2618       C  0.06265390  0.01424851  0.62343058     0.02800
C2619       C  0.08887127  0.99311828  0.68262440     0.09700
C2620       C  0.08137033  0.94870517  0.65737930     0.35600
C2621       C  0.05456664  0.03651590  0.61291859     0.39000
C2622       C  0.07544903  0.99676188  0.70345023    -0.04500
C2623       C  0.08677650  0.99930540  0.72599308     0.02600
C2624       C  0.11261140  0.99847399  0.72817707    -0.04100
C2625       C  0.12543790  0.99230983  0.70652324    -0.00400
C2626       C  0.11367940  0.99021185  0.68432450    -0.02900
C2627       C  0.04951269  0.99724037  0.70154741     0.36300
C2628       C  0.15135196  0.99086115  0.70552379     0.39900
C2629       C  0.07057640  0.00091624  0.74615116     0.39100
C2630       C  0.12748284  0.98646829  0.66257809     0.36000
C2631       C  0.06973267  0.03626367  0.66102731     0.36700
C2632       C  0.06882205  0.94873817  0.60821193     0.39900
N2633       N  0.05661830  0.00162434  0.76143503    -0.38100
N2634       N  0.02887503  0.99748930  0.70002230    -0.39700
N2635       N  0.17183990  0.98971986  0.70276693    -0.37500
N2636       N  0.13841596  0.98357456  0.64526255    -0.39900
N2637       N  0.08593644  0.93094212  0.66686425    -0.39600
N2638       N  0.06889108  0.93088431  0.59777243    -0.37300
N2639       N  0.04813849  0.05430640  0.60462473    -0.38300
N2640       N  0.06910223  0.05407052  0.67152255    -0.40000
C2641       C  0.08637395  0.02777928  0.86131073    -0.04900
C2642       C  0.07183556  0.02312842  0.84128605     0.09200
C2643       C  0.04723053  0.01867545  0.84442421    -0.02300
C2644       C  0.03740794  0.01762248  0.86761066    -0.00600
C2645       C  0.05228699  0.02080627  0.88779888    -0.04200
C2646       C  0.07678625  0.02613310  0.88450192     0.02800
C2647       C  0.08358658  0.01766206  0.81793921     0.09700
C2648       C  0.03230560  0.01414994  0.82378131     0.35600
C2649       C  0.09229076  0.02958976  0.90494322     0.39000
C2650       C  0.09428513  0.99533671  0.81509326    -0.04500
C2651       C  0.11021436  0.99116372  0.79609120     0.02600
C2652       C  0.11132291  0.00702254  0.77567918    -0.04100
C2653       C  0.09867072  0.02940862  0.77868185    -0.00400
C2654       C  0.08616985  0.03488621  0.80006324    -0.02900
C2655       C  0.09035358  0.97706605  0.83322142     0.36300
C2656       C  0.09694630  0.04696479  0.75978697     0.39900
C2657       C  0.12757352  0.97277842  0.80126313     0.39100
C2658       C  0.07565965  0.05832566  0.80371555     0.36000
C2659       C  0.11149701  0.03341643  0.85794893     0.36700
C2660       C  0.01232883  0.01163156  0.87064733     0.39900
N2661       N  0.14121775  0.95836615  0.80688221    -0.38100
N2662       N  0.08719730  0.96263266  0.84765132    -0.39700
N2663       N  0.09407505  0.06166244  0.74559248    -0.37500
N2664       N  0.06738422  0.07703863  0.80669944    -0.39900
N2665       N  0.02040227  0.01058608  0.80729519    -0.39600
N2666       N  0.99234811  0.00673988  0.87303336    -0.37300
N2667       N  0.10469384  0.03209342  0.92125659    -0.38300
N2668       N  0.13150019  0.03801011  0.85521687    -0.40000
C2669       C  0.45280985  0.75306397  0.33007215    -0.04900
C2670       C  0.43195257  0.75243856  0.34396576     0.09200
C2671       C  0.43381428  0.74880825  0.36858211    -0.02300
C2672       C  0.45643802  0.74824808  0.37982960    -0.00600
C2673       C  0.47856330  0.75033815  0.36636317    -0.04200
C2674       C  0.47573305  0.75060532  0.34066631     0.02800
C2675       C  0.40768861  0.75523999  0.33277346     0.09700
C2676       C  0.41200229  0.74684898  0.38268126     0.35600
C2677       C  0.49507187  0.74596970  0.32401362     0.39000
C2678       C  0.39293061  0.73507686  0.32920657    -0.04500
C2679       C  0.36935589  0.73783981  0.32060189     0.02600
C2680       C  0.36025081  0.76089751  0.31552619    -0.04100
C2681       C  0.37527596  0.78102861  0.31872278    -0.00400
C2682       C  0.39894146  0.77815578  0.32694803    -0.02900
C2683       C  0.40227170  0.71140024  0.33402569     0.36300
C2684       C  0.36624904  0.80491999  0.31425198     0.39900
C2685       C  0.35485963  0.71679199  0.31615604     0.39100
C2686       C  0.41434994  0.79890042  0.32895873     0.36000
C2687       C  0.45044482  0.75548789  0.30436930     0.36700
C2688       C  0.45580217  0.74804068  0.40573087     0.39900
N2689       N  0.34331643  0.69999832  0.31256664    -0.38100
N2690       N  0.40982316  0.69254891  0.33783810    -0.39700
N2691       N  0.35910384  0.82399543  0.31076717    -0.37500
N2692       N  0.42633496  0.81573559  0.32994661    -0.39900
N2693       N  0.39465089  0.74520791  0.39385912    -0.39600
N2694       N  0.45346756  0.74808938  0.42624854    -0.37300
N2695       N  0.50967645  0.74185528  0.30990834    -0.38300
N2696       N  0.44849450  0.75747459  0.28392453    -0.40000
C2697       C  0.49068479  0.68355380  0.39949964    -0.04900
C2698       C  0.49519990  0.68341546  0.42401108     0.09200
C2699       C  0.50229691  0.70454707  0.43536439    -0.02300
C2700       C  0.50382617  0.72634397  0.42254165    -0.00600
C2701       C  0.50148156  0.72681928  0.39677780    -0.04200
C2702       C  0.49448964  0.70439590  0.38585891     0.02800
C2703       C  0.49184177  0.66068943  0.43774590     0.09700
C2704       C  0.50743227  0.70385057  0.46076426     0.35600
C2705       C  0.49308593  0.70122045  0.36019509     0.39000
C2706       C  0.51128889  0.64507352  0.44115022    -0.04500
C2707       C  0.50749196  0.62208147  0.45067488     0.02600
C2708       C  0.48413120  0.61448592  0.45702216    -0.04100
C2709       C  0.46480449  0.63062586  0.45460042    -0.00400
C2710       C  0.46870355  0.65364835  0.44502998    -0.02900
C2711       C  0.53528142  0.65253037  0.43466586     0.36300
C2712       C  0.44069661  0.62321861  0.46072969     0.39900
C2713       C  0.52784246  0.60636743  0.45413873     0.39100
C2714       C  0.44882955  0.67001626  0.44204626     0.36000
C2715       C  0.48288089  0.66154097  0.38804485     0.36700
C2716       C  0.50495332  0.74757379  0.43735537     0.39900
N2717       N  0.54408506  0.59385263  0.45679178    -0.38100
N2718       N  0.55461559  0.65814334  0.42983363    -0.39700
N2719       N  0.42143329  0.61733181  0.46554924    -0.37500
N2720       N  0.43308284  0.68318740  0.43960591    -0.39900
N2721       N  0.51171456  0.70326983  0.48093940    -0.39600
N2722       N  0.50527081  0.76383109  0.45015748    -0.37300
N2723       N  0.49195326  0.69674174  0.34007351    -0.38300
N2724       N  0.47664440  0.64400855  0.37902717    -0.40000
C2725       C  0.53728308  0.80184289  0.41513720    -0.04900
C2726       C  0.51978317  0.81946792  0.41781355     0.09200
C2727       C  0.49641240  0.81469358  0.41049402    -0.02300
C2728       C  0.49122560  0.79415374  0.39683468    -0.00600
C2729       C  0.50802782  0.77446217  0.39515449    -0.04200
C2730       C  0.53124700  0.77910983  0.40574278     0.02800
C2731       C  0.52566321  0.84392736  0.42697183     0.09700
C2732       C  0.47773343  0.83205753  0.41592168     0.35600
C2733       C  0.54920795  0.76062242  0.40848319     0.39000
C2734       C  0.52595815  0.86338203  0.41093375    -0.04500
C2735       C  0.52577676  0.88699551  0.41964656     0.02600
C2736       C  0.52578889  0.89130380  0.44444240    -0.04100
C2737       C  0.52752697  0.87188353  0.46045130    -0.00400
C2738       C  0.52725877  0.84821484  0.45171286    -0.02900
C2739       C  0.52545451  0.85902858  0.38542436     0.36300
C2740       C  0.52812489  0.87618765  0.48596432     0.39900
C2741       C  0.52532799  0.90690717  0.40310097     0.39100
C2742       C  0.52738315  0.82825255  0.46816405     0.36000
C2743       C  0.56166428  0.80718410  0.42227364     0.36700
C2744       C  0.46985532  0.79670804  0.38264253     0.39900
N2745       N  0.52497141  0.92282985  0.38996047    -0.38100
N2746       N  0.52502973  0.85560043  0.36507224    -0.39700
N2747       N  0.52860988  0.87961251  0.50631966    -0.37500
N2748       N  0.52752765  0.81226891  0.48123123    -0.39900
N2749       N  0.46292960  0.84581444  0.42035348    -0.39600
N2750       N  0.45272754  0.80062909  0.37181587    -0.37300
N2751       N  0.56411637  0.74671979  0.41190406    -0.38300
N2752       N  0.58109528  0.81155709  0.42786328    -0.40000
C2753       C  0.85768112  0.56537888  0.99674110    -0.04900
C2754       C  0.84491500  0.57354177  0.97665980     0.09200
C2755       C  0.85504937  0.57116191  0.95367248    -0.02300
C2756       C  0.87807796  0.56117387  0.95087694    -0.00600
C2757       C  0.89134772  0.55425515  0.97115919    -0.04200
C2758       C  0.88095888  0.55621627  0.99406544     0.02800
C2759       C  0.82128932  0.58573332  0.98004290     0.09700
C2760       C  0.84179193  0.57917079  0.93296780     0.35600
C2761       C  0.89399533  0.54825183  0.01496690     0.39000
C2762       C  0.82004895  0.61066014  0.97938530    -0.04500
C2763       C  0.79853676  0.62262076  0.98503598     0.02600
C2764       C  0.77685298  0.60974319  0.99118686    -0.04100
C2765       C  0.77854868  0.58390816  0.98999530    -0.00400
C2766       C  0.80063233  0.57245230  0.98495374    -0.02900
C2767       C  0.84158409  0.62419923  0.97377796     0.36300
C2768       C  0.75820455  0.56792590  0.99166159     0.39900
C2769       C  0.80036896  0.64844316  0.98694009     0.39100
C2770       C  0.80218905  0.54651205  0.98405862     0.36000
C2771       C  0.84678668  0.56599823  0.02022986     0.36700
C2772       C  0.88831199  0.55858855  0.92720934     0.39900
N2773       N  0.80375925  0.66877373  0.98862459    -0.38100
N2774       N  0.85869609  0.63494410  0.96925824    -0.39700
N2775       N  0.74278231  0.55410732  0.99226445    -0.37500
N2776       N  0.80351650  0.52589550  0.98327194    -0.39900
N2777       N  0.83122447  0.58568372  0.91648920    -0.39600
N2778       N  0.89642663  0.55641473  0.90831914    -0.37300
N2779       N  0.90435782  0.54199499  0.03167035    -0.38300
N2780       N  0.83829558  0.56587433  0.03906839    -0.40000
C2781       C  0.70493983  0.58269409  0.02747461    -0.04900
C2782       C  0.68615274  0.58188476  0.01106367     0.09200
C2783       C  0.68828357  0.59422035  0.98952550    -0.02300
C2784       C  0.70835893  0.60884836  0.98487777    -0.00600
C2785       C  0.72926704  0.60861098  0.00017789    -0.04200
C2786       C  0.72649250  0.59494888  0.02197003     0.02800
C2787       C  0.66300845  0.56947958  0.01662474     0.09700
C2788       C  0.66853336  0.59311972  0.97260121     0.35600
C2789       C  0.74589695  0.59177192  0.03880215     0.39000
C2790       C  0.64450299  0.58216568  0.02821573    -0.04500
C2791       C  0.62103193  0.57288900  0.02855760     0.02600
C2792       C  0.61586366  0.55107312  0.01703020    -0.04100
C2793       C  0.63462850  0.53766061  0.00673855    -0.00400
C2794       C  0.65820190  0.54679276  0.00669682    -0.02900
C2795       C  0.64941586  0.60535863  0.03868779     0.36300
C2796       C  0.62957130  0.51485509  0.99554431     0.39900
C2797       C  0.60193809  0.58617223  0.04004288     0.39100
C2798       C  0.67741388  0.53343595  0.99551403     0.36000
C2799       C  0.70202318  0.57058278  0.05019510     0.36700
C2800       C  0.70427452  0.62620153  0.96628310     0.39900
N2801       N  0.58660869  0.59663089  0.04920535    -0.38100
N2802       N  0.65336818  0.62387616  0.04700295    -0.39700
N2803       N  0.62565299  0.49663737  0.98657623    -0.37500
N2804       N  0.69283876  0.52287169  0.98663597    -0.39900
N2805       N  0.65282434  0.59223706  0.95922263    -0.39600
N2806       N  0.69954484  0.64009221  0.95182262    -0.37300
N2807       N  0.76045019  0.58774280  0.05287592    -0.38300
N2808       N  0.69962413  0.56107284  0.06835884    -0.40000
C2809       C  0.77417941  0.65302336  0.05843698    -0.04900
C2810       C  0.75329081  0.66420167  0.06626715     0.09200
C2811       C  0.73312129  0.66422846  0.05160307    -0.02300
C2812       C  0.73360275  0.65297013  0.02894282    -0.00600
C2813       C  0.75445000  0.64010101  0.02042572    -0.04200
C2814       C  0.77447901  0.63965832  0.03698535     0.02800
C2815       C  0.75187757  0.67323021  0.09142803     0.09700
C2816       C  0.71157610  0.67603436  0.06012583     0.35600
C2817       C  0.79452504  0.62335862  0.03540514     0.39000
C2818       C  0.75989689  0.69638080  0.09728783    -0.04500
C2819       C  0.76033569  0.70392578  0.12134178     0.02600
C2820       C  0.75308458  0.68816495  0.13976569    -0.04100
C2821       C  0.74482615  0.66502493  0.13373163    -0.00400
C2822       C  0.74411120  0.65768561  0.10966686    -0.02900
C2823       C  0.76777818  0.71234965  0.07849604     0.36300
C2824       C  0.73782100  0.64837002  0.15229470     0.39900
C2825       C  0.76744431  0.72821912  0.12698212     0.39100
C2826       C  0.73568291  0.63391986  0.10356244     0.36000
C2827       C  0.79520792  0.65395036  0.07375339     0.36700
C2828       C  0.71210556  0.65571691  0.01477736     0.39900
N2829       N  0.77301162  0.74762619  0.13148194    -0.38100
N2830       N  0.77408993  0.72505951  0.06347979    -0.39700
N2831       N  0.73225996  0.63504337  0.16707109    -0.37500
N2832       N  0.72891276  0.61503322  0.09853630    -0.39900
N2833       N  0.69444731  0.68541866  0.06697615    -0.39600
N2834       N  0.69431264  0.65925514  0.00489243    -0.37300
N2835       N  0.81079906  0.61060953  0.03572127    -0.38300
N2836       N  0.81186945  0.65473004  0.08594219    -0.40000
C2837       C  0.82950662  0.88882757  0.27666085    -0.04900
C2838       C  0.82975896  0.90288162  0.25576057     0.09200
C2839       C  0.82143238  0.89281648  0.23418981    -0.02300
C2840       C  0.81438920  0.86854943  0.23321894    -0.00600
C2841       C  0.81580212  0.85389563  0.25379148    -0.04200
C2842       C  0.82290424  0.86446191  0.27569480     0.02800
C2843       C  0.84151971  0.92717001  0.25608483     0.09700
C2844       C  0.81990109  0.90739523  0.21289349     0.35600
C2845       C  0.82423326  0.85023357  0.29726609     0.39000
C2846       C  0.86637110  0.92867875  0.25889177    -0.04500
C2847       C  0.87817600  0.95104126  0.25887938     0.02600
C2848       C  0.86552141  0.97310214  0.25394246    -0.04100
C2849       C  0.83971122  0.97105926  0.25324212    -0.00400
C2850       C  0.82821689  0.94834476  0.25410577    -0.02900
C2851       C  0.88021500  0.90666568  0.26003748     0.36300
C2852       C  0.82386062  0.99152893  0.25365233     0.39900
C2853       C  0.90393225  0.94992045  0.26180309     0.39100
C2854       C  0.80229477  0.94662187  0.25335492     0.36000
C2855       C  0.83641999  0.89953649  0.29921170     0.36700
C2856       C  0.80485444  0.85900077  0.21110758     0.39900
N2857       N  0.92422130  0.94692958  0.26454170    -0.38100
N2858       N  0.89117778  0.88915333  0.26073121    -0.39700
N2859       N  0.81035136  0.00718231  0.25454650    -0.37500
N2860       N  0.78165008  0.94524100  0.25276894    -0.39900
N2861       N  0.81819379  0.91880945  0.19578705    -0.39600
N2862       N  0.79716390  0.85144260  0.19349280    -0.37300
N2863       N  0.82527299  0.83898357  0.31453802    -0.38300
N2864       N  0.84195631  0.90820221  0.31712167    -0.40000
C2865       C  0.60047760  0.74724099  0.30228451    -0.04900
C2866       C  0.59604893  0.75480637  0.32588883     0.09200
C2867       C  0.61540415  0.76170409  0.34048060    -0.02300
C2868       C  0.63912166  0.75993159  0.33197304    -0.00600
C2869       C  0.64370223  0.75219762  0.30833217    -0.04200
C2870       C  0.62413973  0.74648528  0.29333386     0.02800
C2871       C  0.57152477  0.75245104  0.33668192     0.09700
C2872       C  0.61086055  0.76997527  0.36460818     0.35600
C2873       C  0.62823343  0.74046992  0.26848504     0.39000
C2874       C  0.56564738  0.73149609  0.34886128    -0.04500
C2875       C  0.54461075  0.73000173  0.36291048     0.02600
C2876       C  0.52693282  0.74906899  0.36309891    -0.04100
C2877       C  0.53325957  0.76987285  0.34904924    -0.00400
C2878       C  0.55534621  0.77150506  0.33663571    -0.02900
C2879       C  0.58260733  0.71171196  0.34816018     0.36300
C2880       C  0.51706560  0.78996183  0.34637464     0.39900
C2881       C  0.54454898  0.70979872  0.37899410     0.39100
C2882       C  0.56169153  0.79309918  0.32375179     0.36000
C2883       C  0.58067159  0.73956986  0.28748241     0.36700
C2884       C  0.65880414  0.76477028  0.34811127     0.39900
N2885       N  0.54621365  0.69345781  0.39149474    -0.38100
N2886       N  0.59615917  0.69610218  0.34765272    -0.39700
N2887       N  0.50477546  0.80625377  0.34312618    -0.37500
N2888       N  0.56679554  0.81029794  0.31349543    -0.39900
N2889       N  0.60720734  0.77666748  0.38380909    -0.39600
N2890       N  0.67446008  0.76841603  0.36108981    -0.37300
N2891       N  0.63150031  0.73587393  0.24861001    -0.38300
N2892       N  0.56484252  0.73328890  0.27577459    -0.40000
C2893       C  0.66993926  0.55164370  0.25050512    -0.04900
C2894       C  0.65575303  0.57237072  0.25012262     0.09200
C2895       C  0.63100412  0.57016260  0.25289153    -0.02300
C2896       C  0.62001729  0.54740873  0.25338896    -0.00600
C2897       C  0.63385509  0.52543533  0.25358994    -0.04200
C2898       C  0.65952532  0.52859387  0.25345343     0.02800
C2899       C  0.66684505  0.59684560  0.24784015     0.09700
C2900       C  0.61657879  0.59174094  0.25465198     0.35600
C2901       C  0.67625482  0.50929649  0.25747363     0.39000
C2902       C  0.66475896  0.61016800  0.22646305    -0.04500
C2903       C  0.67415200  0.63359829  0.22495133     0.02600
C2904       C  0.68559488  0.64406021  0.24482589    -0.04100
C2905       C  0.68796210  0.63057596  0.26607905    -0.00400
C2906       C  0.67831932  0.60731091  0.26766323    -0.02900
C2907       C  0.65226110  0.60030309  0.20609348     0.36300
C2908       C  0.70097294  0.64033375  0.28624277     0.39900
C2909       C  0.67118874  0.64723815  0.20315562     0.39100
C2910       C  0.67952327  0.59434763  0.29002349     0.36000
C2911       C  0.69568440  0.55423771  0.24799324     0.36700
C2912       C  0.59422139  0.54768615  0.25062897     0.39900
N2913       N  0.66880310  0.65806890  0.18575347    -0.38100
N2914       N  0.64219927  0.59335848  0.18945646    -0.39700
N2915       N  0.71143899  0.64811481  0.30225994    -0.37500
N2916       N  0.68035469  0.58400012  0.30785644    -0.39900
N2917       N  0.60512677  0.60889676  0.25610982    -0.39600
N2918       N  0.57387049  0.55003599  0.24772865    -0.37300
N2919       N  0.69056092  0.49479226  0.26105246    -0.38300
N2920       N  0.71617733  0.55640202  0.24599278    -0.40000
C2921       C  0.90437960  0.75189768  0.19173871    -0.04900
C2922       C  0.90922716  0.74146546  0.16932380     0.09200
C2923       C  0.89014952  0.73244219  0.15555975    -0.02300
C2924       C  0.86629565  0.73453766  0.16375779    -0.00600
C2925       C  0.86125914  0.74518329  0.18622572    -0.04200
C2926       C  0.88061205  0.75359859  0.20026076     0.02800
C2927       C  0.93389766  0.74322200  0.15863966     0.09700
C2928       C  0.89511654  0.72161770  0.13253606     0.35600
C2929       C  0.87627825  0.76376895  0.22368557     0.39000
C2930       C  0.94957400  0.72375223  0.15845815    -0.04500
C2931       C  0.97265473  0.72568793  0.14800450     0.02600
C2932       C  0.98032675  0.74701110  0.13540873    -0.04100
C2933       C  0.96283539  0.76620928  0.13511821    -0.00400
C2934       C  0.94090874  0.76453147  0.14773642    -0.02900
C2935       C  0.94180874  0.70148029  0.16928405     0.36300
C2936       C  0.96426667  0.78711233  0.12013181     0.39900
C2937       C  0.98850819  0.70556523  0.15193572     0.39100
C2938       C  0.92438094  0.78468310  0.14838524     0.36000
C2939       C  0.92395780  0.76148891  0.20574412     0.36700
C2940       C  0.84692963  0.72689816  0.14832120     0.39900
N2941       N  0.00007969  0.68907148  0.15651842    -0.38100
N2942       N  0.93558423  0.68366746  0.17772739    -0.39700
N2943       N  0.96340666  0.80416922  0.10856554    -0.37500
N2944       N  0.91122161  0.80062146  0.14895248    -0.39900
N2945       N  0.89920124  0.71290599  0.11424279    -0.39600
N2946       N  0.83152556  0.72091518  0.13590785    -0.37300
N2947       N  0.87287074  0.77192459  0.24236639    -0.38300
N2948       N  0.93961293  0.76926230  0.21677736    -0.40000
C2949       C  0.80640545  0.92798205  0.49360846    -0.04900
C2950       C  0.82698867  0.91418033  0.48989829     0.09200
C2951       C  0.82470041  0.88949851  0.48647310    -0.02300
C2952       C  0.80213181  0.87819022  0.48821878    -0.00600
C2953       C  0.78058790  0.89145965  0.49382378    -0.04200
C2954       C  0.78341383  0.91722053  0.49467233     0.02800
C2955       C  0.85143734  0.92542979  0.48973672     0.09700
C2956       C  0.84616727  0.87536355  0.48235581     0.35600
C2957       C  0.76354396  0.93386883  0.49393769     0.39000
C2958       C  0.86223852  0.93246933  0.51134132    -0.04500
C2959       C  0.88624100  0.94026063  0.51163536     0.02600
C2960       C  0.90000691  0.94060093  0.49031146    -0.04100
C2961       C  0.88865420  0.93477332  0.46845154    -0.00400
C2962       C  0.86442852  0.92750517  0.46820965    -0.02900
C2963       C  0.84864334  0.93171886  0.53340815     0.36300
C2964       C  0.90190440  0.93547379  0.44618143     0.39900
C2965       C  0.89639467  0.94863820  0.53395928     0.39100
C2966       C  0.85276870  0.92194838  0.44578003     0.36000
C2967       C  0.80901057  0.95376672  0.49563342     0.36700
C2968       C  0.80241873  0.85232561  0.48621188     0.39900
N2969       N  0.90444514  0.95536565  0.55174742    -0.38100
N2970       N  0.83789307  0.93146262  0.55106998    -0.39700
N2971       N  0.91238702  0.93606947  0.42836326    -0.37500
N2972       N  0.84336912  0.91753821  0.42793845    -0.39900
N2973       N  0.86326876  0.86418344  0.47908758    -0.39600
N2974       N  0.80445874  0.83182677  0.48445425    -0.37300
N2975       N  0.74842039  0.94795849  0.49289506    -0.38300
N2976       N  0.81112756  0.97426961  0.49729798    -0.40000
C2977       C  0.69221519  0.91018468  0.48956581    -0.04900
C2978       C  0.68923525  0.91964836  0.51244992     0.09200
C2979       C  0.70792653  0.91815006  0.52885007    -0.02300
C2980       C  0.72972261  0.90686668  0.52258693    -0.00600
C2981       C  0.73287278  0.89473354  0.49990294    -0.04200
C2982       C  0.71285093  0.89682387  0.48355137     0.02800
C2983       C  0.66541556  0.92985958  0.51923908     0.09700
C2984       C  0.70450653  0.92826319  0.55248874     0.35600
C2985       C  0.71031678  0.88360551  0.46154171     0.39000
C2986       C  0.64788550  0.91487570  0.52955589    -0.04500
C2987       C  0.62374551  0.92217179  0.53021255     0.02600
C2988       C  0.61718412  0.94456405  0.52082051    -0.04100
C2989       C  0.63502231  0.96044738  0.51265581    -0.00400
C2990       C  0.65909850  0.95303259  0.51168579    -0.02900
C2991       C  0.65459262  0.89153454  0.53848690     0.36300
C2992       C  0.62847111  0.98420497  0.50472015     0.39900
C2993       C  0.60552781  0.90634729  0.53971846     0.39100
C2994       C  0.67723112  0.96868045  0.50174948     0.36000
C2995       C  0.67278682  0.91298661  0.47244349     0.36700
C2996       C  0.74883081  0.90870812  0.53998248     0.39900
N2997       N  0.59095802  0.89376146  0.54731494    -0.38100
N2998       N  0.66002011  0.87297350  0.54572898    -0.39700
N2999       N  0.62324227  0.00321115  0.49854452    -0.37500
N3000       N  0.69173753  0.98107766  0.49373914    -0.39900
N3001       N  0.70165614  0.93622108  0.57134162    -0.39600
N3002       N  0.76325974  0.91138707  0.55451005    -0.37300
N3003       N  0.70623040  0.87360791  0.44394217    -0.38300
N3004       N  0.65735956  0.91523903  0.45890475    -0.40000
C3005       C  0.74692617  0.82498465  0.44835420    -0.04900
C3006       C  0.75085891  0.83713740  0.42692961     0.09200
C3007       C  0.75736740  0.86125901  0.42746480    -0.02300
C3008       C  0.75839904  0.87388934  0.44929811    -0.00600
C3009       C  0.75415263  0.86215730  0.47198415    -0.04200
C3010       C  0.75058005  0.83650955  0.47057586     0.02800
C3011       C  0.74994435  0.82430126  0.40347981     0.09700
C3012       C  0.76186980  0.87348063  0.40498951     0.35600
C3013       C  0.75360481  0.82036064  0.49055004     0.39000
C3014       C  0.72889854  0.82450701  0.38970767    -0.04500
C3015       C  0.72932282  0.81636852  0.36588535     0.02600
C3016       C  0.75066311  0.80692464  0.35591268    -0.04100
C3017       C  0.77129523  0.80511827  0.37050282    -0.00400
C3018       C  0.77095368  0.81404482  0.39405598    -0.02900
C3019       C  0.70670553  0.83309180  0.40000743     0.36300
C3020       C  0.79283344  0.79367898  0.36162059     0.39900
C3021       C  0.70798123  0.81893919  0.35141861     0.39100
C3022       C  0.79230813  0.81292699  0.40868902     0.36000
C3023       C  0.73962919  0.80006496  0.44739444     0.36700
C3024       C  0.76178287  0.89951332  0.44713874     0.39900
N3025       N  0.69097364  0.82107399  0.33988770    -0.38100
N3026       N  0.68866981  0.83948505  0.40789866    -0.39700
N3027       N  0.81005009  0.78452426  0.35466673    -0.37500
N3028       N  0.80923263  0.81206947  0.42050219    -0.39900
N3029       N  0.76532903  0.88311398  0.38705842    -0.39600
N3030       N  0.76440798  0.91969609  0.44350385    -0.37300
N3031       N  0.75639609  0.80657902  0.50568058    -0.38300
N3032       N  0.73359053  0.78029925  0.44662775    -0.40000
C3033       C  0.89001687  0.51104846  0.66968236    -0.04900
C3034       C  0.91505067  0.51084141  0.66907797     0.09200
C3035       C  0.92774131  0.50855646  0.69051116    -0.02300
C3036       C  0.91562387  0.50527159  0.71261075    -0.00600
C3037       C  0.88976554  0.50361366  0.71370866    -0.04200
C3038       C  0.87747007  0.50802322  0.69139215     0.02800
C3039       C  0.92779583  0.51277300  0.64546155     0.09700
C3040       C  0.95370145  0.51009001  0.68970443     0.35600
C3041       C  0.85164009  0.50688469  0.68916393     0.39000
C3042       C  0.92682696  0.53430924  0.63231776    -0.04500
C3043       C  0.93570585  0.53519835  0.60875187     0.02600
C3044       C  0.94622592  0.51478097  0.59835443    -0.04100
C3045       C  0.94795777  0.49348509  0.61167962    -0.00400
C3046       C  0.93882501  0.49247460  0.63515938    -0.02900
C3047       C  0.91631287  0.55548109  0.64296815     0.36300
C3048       C  0.95927302  0.47260524  0.60123998     0.39900
C3049       C  0.93296897  0.55678701  0.59473496     0.39100
C3050       C  0.94078519  0.47046449  0.64861694     0.36000
C3051       C  0.87694964  0.51288429  0.64730114     0.36700
C3052       C  0.93083749  0.50573248  0.73350376     0.39900
N3053       N  0.93060491  0.57387884  0.58339505    -0.38100
N3054       N  0.90784109  0.57233408  0.65145516    -0.39700
N3055       N  0.96828656  0.45593892  0.59293775    -0.37500
N3056       N  0.94278742  0.45287837  0.65925293    -0.39900
N3057       N  0.97435779  0.51128139  0.68900373    -0.39600
N3058       N  0.94394537  0.50679847  0.74943796    -0.37300
N3059       N  0.83136420  0.50612403  0.68512587    -0.38300
N3060       N  0.86658559  0.51428696  0.62951419    -0.40000
C3061       C  0.90197050  0.50832480  0.80271201    -0.04900
C3062       C  0.91501235  0.48731825  0.80588810     0.09200
C3063       C  0.91590513  0.47053486  0.78739153    -0.02300
C3064       C  0.90418703  0.47489227  0.76536189    -0.00600
C3065       C  0.88953205  0.49591008  0.76159413    -0.04200
C3066       C  0.88781955  0.51172882  0.78213305     0.02800
C3067       C  0.92653450  0.48267459  0.82962554     0.09700
C3068       C  0.92923302  0.44858314  0.79113220     0.35600
C3069       C  0.86945779  0.52958187  0.78544618     0.39000
C3070       C  0.91208252  0.47731051  0.84965134    -0.04500
C3071       C  0.92205427  0.47697240  0.87274378     0.02600
C3072       C  0.94665842  0.48168292  0.87599281    -0.04100
C3073       C  0.96130570  0.48609190  0.85583223    -0.00400
C3074       C  0.95126979  0.48651161  0.83274374    -0.02900
C3075       C  0.88676099  0.47262470  0.84646876     0.36300
C3076       C  0.98649014  0.49154860  0.85891893     0.39900
C3077       C  0.90698663  0.47159156  0.89315233     0.39100
C3078       C  0.96627724  0.49151756  0.81221899     0.36000
C3079       C  0.90192220  0.52603355  0.82184521     0.36700
C3080       C  0.90879342  0.45754586  0.74669374     0.39900
N3081       N  0.89500182  0.46734074  0.90946499    -0.38100
N3082       N  0.86655478  0.46894620  0.84392802    -0.39700
N3083       N  0.00654701  0.49601233  0.86141508    -0.37500
N3084       N  0.97830902  0.49533584  0.79583764    -0.39900
N3085       N  0.93988592  0.43113683  0.79416077    -0.39600
N3086       N  0.91405385  0.44296289  0.73300948    -0.37300
N3087       N  0.85496492  0.54364753  0.78979447    -0.38300
N3088       N  0.90177227  0.53995639  0.83712618    -0.40000
C3089       C  0.84916886  0.43501606  0.71534910    -0.04900
C3090       C  0.83531407  0.42796601  0.73482268     0.09200
C3091       C  0.83362602  0.44292738  0.75474015    -0.02300
C3092       C  0.84584499  0.46515479  0.75541375    -0.00600
C3093       C  0.85997294  0.47363337  0.73544017    -0.04200
C3094       C  0.86230044  0.45664900  0.71583019     0.02800
C3095       C  0.82480546  0.40329202  0.73517621     0.09700
C3096       C  0.81865882  0.43540587  0.77459427     0.35600
C3097       C  0.88020765  0.45802059  0.69715828     0.39000
C3098       C  0.83897152  0.38399003  0.74292742    -0.04500
C3099       C  0.83014429  0.36042926  0.74159524     0.02600
C3100       C  0.80672036  0.35594556  0.73299460    -0.04100
C3101       C  0.79263275  0.37536833  0.72503491    -0.00400
C3102       C  0.80175403  0.39892107  0.72597621    -0.02900
C3103       C  0.86285558  0.38846437  0.75203818     0.36300
C3104       C  0.76845640  0.37131642  0.71662063     0.39900
C3105       C  0.84562004  0.34075982  0.74835798     0.39100
C3106       C  0.78749064  0.41874287  0.71743585     0.36000
C3107       C  0.85101151  0.41878914  0.69503726     0.36700
C3108       C  0.84235098  0.47917794  0.77690895     0.39900
N3109       N  0.85804833  0.32512523  0.75365498    -0.38100
N3110       N  0.88186912  0.39214510  0.75929811    -0.39700
N3111       N  0.74915888  0.36805168  0.70992863    -0.37500
N3112       N  0.77614723  0.43458027  0.71057940    -0.39900
N3113       N  0.80655913  0.42944923  0.79027344    -0.39600
N3114       N  0.83826135  0.48899206  0.79463164    -0.37300
N3115       N  0.89426603  0.45735546  0.68199189    -0.38300
N3116       N  0.85257013  0.40581728  0.67901818    -0.40000
C3117       C  0.60878561  0.22724881  0.65459376    -0.04900
C3118       C  0.58995853  0.23220437  0.67072392     0.09200
C3119       C  0.59515238  0.23636597  0.69498925    -0.02300
C3120       C  0.61910407  0.23645336  0.70289342    -0.00600
C3121       C  0.63797673  0.23327391  0.68639581    -0.04200
C3122       C  0.63275472  0.22823703  0.66231358     0.02800
C3123       C  0.56539994  0.23700582  0.66120580     0.09700
C3124       C  0.57595884  0.24183403  0.71154184     0.35600
C3125       C  0.65207310  0.22446318  0.64541983     0.39000
C3126       C  0.54718565  0.21989500  0.66238518    -0.04500
C3127       C  0.52426714  0.22471454  0.65270686     0.02600
C3128       C  0.51943380  0.24638314  0.63937679    -0.04100
C3129       C  0.53979095  0.26233455  0.63677247    -0.00400
C3130       C  0.56117683  0.25861131  0.64955040    -0.02900
C3131       C  0.55205599  0.19727068  0.67405275     0.36300
C3132       C  0.54187573  0.28094535  0.61900156     0.39900
C3133       C  0.50566278  0.20752548  0.65843939     0.39100
C3134       C  0.57991908  0.27676869  0.64959881     0.36000
C3135       C  0.60340398  0.22212570  0.62980238     0.36700
C3136       C  0.62439113  0.24088556  0.72783039     0.39900
N3137       N  0.49163663  0.19343840  0.66421967    -0.38100
N3138       N  0.55596596  0.17923259  0.68331238    -0.39700
N3139       N  0.54532606  0.29572830  0.60501068    -0.37500
N3140       N  0.59483591  0.29111742  0.64963601    -0.39900
N3141       N  0.56072435  0.24630541  0.72481736    -0.39600
N3142       N  0.62859336  0.24435799  0.74773759    -0.37300
N3143       N  0.66750059  0.22151939  0.63193802    -0.38300
N3144       N  0.59897884  0.21806156  0.61005464    -0.40000
C3145       C  0.75661483  0.31034890  0.59436724    -0.04900
C3146       C  0.73463634  0.31734531  0.58421671     0.09200
C3147       C  0.71334319  0.31403877  0.59736094    -0.02300
C3148       C  0.71419739  0.30619568  0.62132006    -0.00600
C3149       C  0.73652847  0.30136368  0.63238304    -0.04200
C3150       C  0.75763748  0.30266404  0.61832128     0.02800
C3151       C  0.73429272  0.33084981  0.56098677     0.09700
C3152       C  0.69052259  0.31900299  0.58613914     0.35600
C3153       C  0.78058264  0.29574587  0.62821842     0.39000
C3154       C  0.73833593  0.31933899  0.53914873    -0.04500
C3155       C  0.74054965  0.33256378  0.51760204     0.02600
C3156       C  0.74013197  0.35848503  0.51761663    -0.04100
C3157       C  0.73357272  0.36932384  0.54023302    -0.00400
C3158       C  0.73070944  0.35560986  0.56124285    -0.02900
C3159       C  0.73955976  0.29338860  0.53893859     0.36300
C3160       C  0.73269591  0.39501077  0.54371164     0.39900
C3161       C  0.74112450  0.31815960  0.49613442     0.39100
C3162       C  0.72570957  0.36736203  0.58390975     0.36000
C3163       C  0.77829674  0.31072794  0.58011720     0.36700
C3164       C  0.69200866  0.30406876  0.63462275     0.39900
N3165       N  0.74092317  0.30555292  0.47974443    -0.38100
N3166       N  0.74047552  0.27273596  0.53879545    -0.39700
N3167       N  0.73197963  0.41508377  0.54863404    -0.37500
N3168       N  0.72175359  0.37665678  0.60194195    -0.39900
N3169       N  0.67236223  0.32289820  0.57708287    -0.39600
N3170       N  0.67422995  0.30230664  0.64509844    -0.37300
N3171       N  0.79892591  0.29032843  0.63605243    -0.38300
N3172       N  0.79569425  0.31040385  0.56889346    -0.40000
C3173       C  0.89260641  0.23896529  0.80726162    -0.04900
C3174       C  0.90273421  0.26040062  0.81596109     0.09200
C3175       C  0.88896534  0.28158134  0.81558776    -0.02300
C3176       C  0.86476501  0.28094851  0.80834330    -0.00600
C3177       C  0.85422268  0.25915909  0.80096333    -0.04200
C3178       C  0.86851060  0.23830080  0.79992889     0.02800
C3179       C  0.92672369  0.25985384  0.82813880     0.09700
C3180       C  0.89961193  0.30396205  0.82320094     0.35600
C3181       C  0.85857095  0.21600058  0.79109912     0.39000
C3182       C  0.94788316  0.25592507  0.81522855    -0.04500
C3183       C  0.97003365  0.25197802  0.82704476     0.02600
C3184       C  0.97154538  0.25189624  0.85284988    -0.04100
C3185       C  0.94951047  0.25770389  0.86528003    -0.00400
C3186       C  0.92779285  0.26154276  0.85302331    -0.02900
C3187       C  0.94672106  0.25646145  0.78932043     0.36300
C3188       C  0.94740203  0.25695255  0.89107333     0.39900
C3189       C  0.99056450  0.24959501  0.81142549     0.39100
C3190       C  0.90584723  0.26607019  0.86635205     0.36000
C3191       C  0.90690045  0.21739492  0.80580645     0.36700
C3192       C  0.85042847  0.30249790  0.80979128     0.39900
N3193       N  0.00611130  0.24827202  0.79780192    -0.38100
N3194       N  0.94572193  0.25694760  0.76871198    -0.39700
N3195       N  0.94336292  0.25623026  0.91131161    -0.37500
N3196       N  0.88844848  0.26978186  0.87694729    -0.39900
N3197       N  0.90804659  0.32182287  0.82933905    -0.39600
N3198       N  0.83893379  0.31964707  0.81098845    -0.37300
N3199       N  0.85068544  0.19817574  0.78417181    -0.38300
N3200       N  0.91810540  0.20010640  0.80405412    -0.40000
C3201       C  0.77576426  0.17650169  0.88969874    -0.04900
C3202       C  0.75493459  0.17604031  0.90402243     0.09200
C3203       C  0.73346339  0.18557045  0.89492899    -0.02300
C3204       C  0.73260597  0.19487306  0.87152319    -0.00600
C3205       C  0.75318355  0.19429942  0.85665899    -0.04200
C3206       C  0.77488302  0.18536941  0.86611695     0.02800
C3207       C  0.75473566  0.16308813  0.92755758     0.09700
C3208       C  0.71198082  0.18504066  0.90950227     0.35600
C3209       C  0.79613204  0.18397190  0.85123979     0.39000
C3210       C  0.75514084  0.17555515  0.94927238    -0.04500
C3211       C  0.75266659  0.16335804  0.97139278     0.02600
C3212       C  0.75269432  0.13748566  0.97249951    -0.04100
C3213       C  0.75221184  0.12545006  0.94957919    -0.00400
C3214       C  0.75248949  0.13820613  0.92782060    -0.02900
C3215       C  0.75779778  0.20138185  0.94869132     0.36300
C3216       C  0.75366228  0.09968774  0.94721979     0.39900
C3217       C  0.74788006  0.17859826  0.99175771     0.39100
C3218       C  0.75106073  0.12551657  0.90518391     0.36000
C3219       C  0.79812079  0.16723950  0.89885541     0.36700
C3220       C  0.71046104  0.20522657  0.86293589     0.39900
N3221       N  0.74356270  0.19172404  0.00716097    -0.38100
N3222       N  0.76004002  0.22193096  0.94822780    -0.39700
N3223       N  0.75519126  0.07946593  0.94318901    -0.37500
N3224       N  0.74996660  0.11549612  0.88715117    -0.39900
N3225       N  0.69491030  0.18451879  0.92120616    -0.39600
N3226       N  0.69276868  0.21346985  0.85614054    -0.37300
N3227       N  0.81307430  0.18278023  0.83939292    -0.38300
N3228       N  0.81632552  0.16004266  0.90546419    -0.40000
C3229       C  0.56936394  0.01506366  0.86562111    -0.04900
C3230       C  0.56775258  0.99767156  0.84749222     0.09200
C3231       C  0.55460465  0.97651101  0.85168259    -0.02300
C3232       C  0.54638289  0.97116285  0.87481561    -0.00600
C3233       C  0.54764624  0.98861098  0.89300107    -0.04200
C3234       C  0.55789427  0.01123204  0.88767940     0.02800
C3235       C  0.58310706  0.99933954  0.82562858     0.09700
C3236       C  0.55095283  0.95951131  0.83243668     0.35600
C3237       C  0.55655113  0.03076774  0.90469006     0.39000
C3238       C  0.60158552  0.98279341  0.82260999    -0.04500
C3239       C  0.61420893  0.98124871  0.80085759     0.02600
C3240       C  0.60953766  0.99772089  0.78139401    -0.04100
C3241       C  0.59359136  0.01722013  0.78721712    -0.00400
C3242       C  0.57950152  0.01691029  0.80826596    -0.02900
C3243       C  0.60785165  0.96729002  0.84256644     0.36300
C3244       C  0.58914491  0.03691180  0.77104416     0.39900
C3245       C  0.63298425  0.96339460  0.80088253     0.39100
C3246       C  0.56014950  0.03396599  0.81144137     0.36000
C3247       C  0.58384573  0.03630975  0.86210600     0.36700
C3248       C  0.53959946  0.94681068  0.88031093     0.39900
N3249       N  0.64778046  0.94903780  0.80227222    -0.38100
N3250       N  0.61278379  0.95503723  0.85841774    -0.39700
N3251       N  0.58415746  0.05324570  0.75944784    -0.37500
N3252       N  0.54469185  0.04748954  0.81390967    -0.39900
N3253       N  0.54801751  0.94602878  0.81705082    -0.39600
N3254       N  0.53526443  0.92703458  0.88443927    -0.37300
N3255       N  0.55533887  0.04642420  0.91814572    -0.38300
N3256       N  0.59549028  0.05318595  0.85930783    -0.40000
C3257       C  0.55975752  0.97162649  0.65402787    -0.04900
C3258       C  0.56262088  0.99216015  0.66819510     0.09200
C3259       C  0.55526053  0.01453016  0.65936575    -0.02300
C3260       C  0.54900836  0.01702724  0.63515446    -0.00600
C3261       C  0.54920195  0.99682979  0.61986051    -0.04200
C3262       C  0.55274399  0.97383644  0.63004131     0.02800
C3263       C  0.57674478  0.99079579  0.69074868     0.09700
C3264       C  0.55401446  0.03501303  0.67518390     0.35600
C3265       C  0.54892149  0.95228351  0.61611394     0.39000
C3266       C  0.60164867  0.98889298  0.68935868    -0.04500
C3267       C  0.61582498  0.99110320  0.71001058     0.02600
C3268       C  0.60527165  0.99411985  0.73348739    -0.04100
C3269       C  0.57932532  0.99262034  0.73429436    -0.00400
C3270       C  0.56561247  0.99195618  0.71303705    -0.02900
C3271       C  0.61290986  0.98597658  0.66606511     0.36300
C3272       C  0.56535828  0.98971169  0.75587533     0.39900
C3273       C  0.64132805  0.99342951  0.70559432     0.39100
C3274       C  0.53959449  0.99160624  0.71390514     0.36000
C3275       C  0.56458656  0.94827506  0.66414063     0.36700
C3276       C  0.54314980  0.04058375  0.62622492     0.39900
N3277       N  0.66113454  0.99561198  0.69994935    -0.38100
N3278       N  0.62183221  0.98353724  0.64757486    -0.39700
N3279       N  0.55279724  0.98667931  0.77205129    -0.37500
N3280       N  0.51890618  0.99125058  0.71452954    -0.39900
N3281       N  0.55229933  0.05140713  0.68766951    -0.39600
N3282       N  0.53832860  0.05950928  0.61953300    -0.37300
N3283       N  0.54582318  0.93509334  0.60504238    -0.38300
N3284       N  0.56838228  0.92967349  0.67227099    -0.40000
C3285       C  0.66170739  0.10985903  0.77400717    -0.04900
C3286       C  0.67245796  0.09207392  0.75966982     0.09200
C3287       C  0.69227248  0.09787575  0.74515955    -0.02300
C3288       C  0.70080528  0.12154565  0.74437896    -0.00600
C3289       C  0.68941688  0.13951081  0.75796172    -0.04200
C3290       C  0.67018937  0.13355957  0.77315474     0.02800
C3291       C  0.66126890  0.06784148  0.75796419     0.09700
C3292       C  0.70333453  0.07957942  0.73048899     0.35600
C3293       C  0.65848411  0.15204509  0.78707317     0.39000
C3294       C  0.64611834  0.06269068  0.73892012    -0.04500
C3295       C  0.63358422  0.04074302  0.73779209     0.02600
C3296       C  0.63730162  0.02191940  0.75533058    -0.04100
C3297       C  0.65300454  0.02842594  0.77486203    -0.00400
C3298       C  0.66471634  0.05087635  0.77582210    -0.02900
C3299       C  0.64243047  0.08107112  0.72084531     0.36300
C3300       C  0.65899024  0.01225468  0.79409048     0.39900
C3301       C  0.61517855  0.04058536  0.71969689     0.39100
C3302       C  0.68095089  0.05664270  0.79525179     0.36000
C3303       C  0.64135165  0.10388676  0.78894699     0.36700
C3304       C  0.72139593  0.12742801  0.72970718     0.39900
N3305       N  0.60082916  0.04230484  0.70498086    -0.38100
N3306       N  0.63947873  0.09568748  0.70657392    -0.39700
N3307       N  0.66565769  0.00111699  0.81012449    -0.37500
N3308       N  0.69391565  0.06130047  0.81063528    -0.39900
N3309       N  0.71200931  0.06496721  0.71869419    -0.39600
N3310       N  0.73789298  0.13211713  0.71811100    -0.37300
N3311       N  0.64916064  0.16686422  0.79809217    -0.38300
N3312       N  0.62514348  0.09903881  0.80087581    -0.40000
C3313       C  0.81323377  0.60033082  0.76597894    -0.04900
C3314       C  0.81636367  0.58911971  0.74361543     0.09200
C3315       C  0.80963175  0.60134517  0.72274916    -0.02300
C3316       C  0.80115823  0.62506327  0.72407428    -0.00600
C3317       C  0.80060148  0.63739323  0.74627559    -0.04200
C3318       C  0.80601143  0.62449790  0.76733516     0.02800
C3319       C  0.82996506  0.56602960  0.74162746     0.09700
C3320       C  0.81204465  0.58959809  0.69977427     0.35600
C3321       C  0.80520733  0.63614277  0.79047163     0.39000
C3322       C  0.81827646  0.54389049  0.74107883    -0.04500
C3323       C  0.83137043  0.52221863  0.73854901     0.02600
C3324       C  0.85733900  0.52211889  0.73829725    -0.04100
C3325       C  0.86842248  0.54557802  0.73763153    -0.00400
C3326       C  0.85481166  0.56681940  0.73891274    -0.02900
C3327       C  0.79230133  0.54363731  0.74228818     0.36300
C3328       C  0.89413081  0.54904166  0.73831534     0.39900
C3329       C  0.81683293  0.50125377  0.73406062     0.39100
C3330       C  0.86659044  0.59003711  0.73825150     0.36000
C3331       C  0.81740377  0.58711917  0.78776741     0.36700
C3332       C  0.79250198  0.63640872  0.70249126     0.39900
N3333       N  0.80413295  0.48541520  0.72996783    -0.38100
N3334       N  0.77161815  0.54344078  0.74313555    -0.39700
N3335       N  0.91420003  0.55402854  0.73925727    -0.37500
N3336       N  0.87584608  0.60853104  0.73774278    -0.39900
N3337       N  0.81406256  0.58019296  0.68148590    -0.39600
N3338       N  0.78546847  0.64536164  0.68528657    -0.37300
N3339       N  0.80463134  0.64532163  0.80897733    -0.38300
N3340       N  0.82002005  0.57713418  0.80562458    -0.40000
C3341       C  0.73996586  0.83994424  0.60764658    -0.04900
C3342       C  0.74566014  0.82455459  0.58851974     0.09200
C3343       C  0.75125910  0.80045067  0.59311217    -0.02300
C3344       C  0.75236027  0.79202717  0.61683601    -0.00600
C3345       C  0.74727334  0.80758215  0.63614456    -0.04200
C3346       C  0.74068031  0.83152373  0.63134200     0.02800
C3347       C  0.74872528  0.83475333  0.56398857     0.09700
C3348       C  0.75588388  0.78439239  0.57332069     0.35600
C3349       C  0.73569879  0.84792376  0.65078830     0.39000
C3350       C  0.77121584  0.84319877  0.55710195    -0.04500
C3351       C  0.77373777  0.85825888  0.53704291     0.02600
C3352       C  0.75452643  0.86099152  0.51988060    -0.04100
C3353       C  0.73206261  0.84984242  0.52667326    -0.00400
C3354       C  0.72912238  0.83835058  0.54897977    -0.02900
C3355       C  0.79179715  0.83759241  0.57197285     0.36300
C3356       C  0.71163361  0.84890376  0.51072977     0.39900
C3357       C  0.79513010  0.87282622  0.53778994     0.39100
C3358       C  0.70572682  0.83001642  0.55663621     0.36000
C3359       C  0.73384533  0.86467361  0.60285141     0.36700
C3360       C  0.75836915  0.76723094  0.62128547     0.39900
N3361       N  0.81234323  0.88407820  0.54016835    -0.38100
N3362       N  0.80814488  0.83294258  0.58370145    -0.39700
N3363       N  0.69492007  0.84710160  0.49871210    -0.37500
N3364       N  0.68707992  0.82352694  0.56287737    -0.39900
N3365       N  0.75938679  0.77158378  0.55747639    -0.39600
N3366       N  0.76323985  0.74746542  0.62484346    -0.37300
N3367       N  0.73178605  0.86111273  0.66622253    -0.38300
N3368       N  0.72891427  0.88434375  0.59888324    -0.40000
C3369       C  0.59650430  0.76335899  0.80747792    -0.04900
C3370       C  0.59244116  0.75533722  0.83099152     0.09200
C3371       C  0.61209886  0.74790006  0.84490293    -0.02300
C3372       C  0.63553307  0.74807966  0.83527767    -0.00600
C3373       C  0.63957921  0.75508843  0.81130679    -0.04200
C3374       C  0.61981393  0.76284032  0.79750833     0.02800
C3375       C  0.56746762  0.75515271  0.84140305     0.09700
C3376       C  0.60818395  0.74028227  0.86931936     0.35600
C3377       C  0.62317042  0.76943284  0.77271708     0.39000
C3378       C  0.55312896  0.73472795  0.83987112    -0.04500
C3379       C  0.53026437  0.73376531  0.85100807     0.02600
C3380       C  0.52060979  0.75364734  0.86456781    -0.04100
C3381       C  0.53633744  0.77445947  0.86570770    -0.00400
C3382       C  0.55878602  0.77507271  0.85368711    -0.02900
C3383       C  0.56225337  0.71433788  0.82657773     0.36300
C3384       C  0.53262221  0.79476419  0.88132529     0.39900
C3385       C  0.51715944  0.71172765  0.84732227     0.39100
C3386       C  0.57407676  0.79613138  0.85503694     0.36000
C3387       C  0.57659873  0.77241426  0.79365868     0.36700
C3388       C  0.65559877  0.74191737  0.85044418     0.39900
N3389       N  0.50841096  0.69356029  0.84271490    -0.38100
N3390       N  0.56958498  0.69818588  0.81593956    -0.39700
N3391       N  0.53147149  0.81127219  0.89373044    -0.37500
N3392       N  0.58629813  0.81278950  0.85619339    -0.39900
N3393       N  0.60507574  0.73420277  0.88880234    -0.39600
N3394       N  0.67165261  0.73717572  0.86254094    -0.37300
N3395       N  0.62579036  0.77459053  0.75289776    -0.38300
N3396       N  0.56067610  0.77985039  0.78281688    -0.40000
C3397       C  0.68446048  0.89330756  0.76462264    -0.04900
C3398       C  0.67648058  0.90515823  0.74396980     0.09200
C3399       C  0.67641522  0.89300176  0.72191547    -0.02300
C3400       C  0.68236816  0.86851800  0.72082640    -0.00600
C3401       C  0.68925104  0.85620010  0.74178068    -0.04200
C3402       C  0.69086410  0.86900206  0.76358555     0.02800
C3403       C  0.66401547  0.92872430  0.74623471     0.09700
C3404       C  0.66943714  0.90567133  0.70047776     0.35600
C3405       C  0.69909931  0.85731671  0.78518256     0.39000
C3406       C  0.67671628  0.95025739  0.74761761    -0.04500
C3407       C  0.66456029  0.97242373  0.75022324     0.02600
C3408       C  0.63880772  0.97326593  0.75326502    -0.04100
C3409       C  0.62665578  0.95039697  0.75195231    -0.00400
C3410       C  0.63908559  0.92894517  0.74767902    -0.02900
C3411       C  0.70263536  0.94943591  0.74569837     0.36300
C3412       C  0.60154050  0.94739018  0.75780092     0.39900
C3413       C  0.67955114  0.99341659  0.74787315     0.39100
C3414       C  0.62608056  0.90643834  0.74569923     0.36000
C3415       C  0.68582337  0.90597002  0.78716351     0.36700
C3416       C  0.67975353  0.85579254  0.69842819     0.39900
N3417       N  0.69258262  0.00931608  0.74532603    -0.38100
N3418       N  0.72326908  0.94869099  0.74419767    -0.39700
N3419       N  0.58211837  0.94243493  0.76299478    -0.37500
N3420       N  0.61578042  0.88857109  0.74404548    -0.39900
N3421       N  0.66396186  0.91591407  0.68343001    -0.39600
N3422       N  0.67746836  0.84565204  0.68057259    -0.37300
N3423       N  0.70549153  0.84801602  0.80245396    -0.38300
N3424       N  0.68741179  0.91562137  0.80535328    -0.40000
C3425       C  0.76718309  0.68723098  0.89200719    -0.04900
C3426       C  0.74660021  0.67768559  0.90306424     0.09200
C3427       C  0.72493228  0.67671537  0.89017286    -0.02300
C3428       C  0.72425157  0.68347062  0.86595236    -0.00600
C3429       C  0.74510621  0.69199346  0.85445430    -0.04200
C3430       C  0.76644110  0.69452273  0.86788019     0.02800
C3431       C  0.74863498  0.66540420  0.92681655     0.09700
C3432       C  0.70310953  0.66865582  0.90156488     0.35600
C3433       C  0.78758563  0.70502737  0.85710314     0.39000
C3434       C  0.74759279  0.67809748  0.94837229    -0.04500
C3435       C  0.75011280  0.66620259  0.97066721     0.02600
C3436       C  0.75110145  0.64034717  0.97200019    -0.04100
C3437       C  0.75232153  0.62816739  0.94914500    -0.00400
C3438       C  0.75235095  0.64073591  0.92733830    -0.02900
C3439       C  0.74464570  0.70386651  0.94740604     0.36300
C3440       C  0.75100758  0.60237183  0.94684475     0.39900
C3441       C  0.75345181  0.68180866  0.99102907     0.39100
C3442       C  0.75589542  0.62805244  0.90490865     0.36000
C3443       C  0.78923357  0.68918643  0.90546784     0.36700
C3444       C  0.70221194  0.68045426  0.85261599     0.39900
N3445       N  0.75652005  0.69527650  0.00643055    -0.38100
N3446       N  0.74234425  0.72439321  0.94661271    -0.39700
N3447       N  0.74943985  0.58212827  0.94291590    -0.37500
N3448       N  0.75890219  0.61806738  0.88706550    -0.39900
N3449       N  0.68501989  0.66272627  0.90968398    -0.39600
N3450       N  0.68465105  0.67799252  0.84199865    -0.37300
N3451       N  0.80446757  0.71346390  0.84858421    -0.38300
N3452       N  0.80673416  0.69080792  0.91633844    -0.40000
C3453       C  0.89236695  0.76104701  0.68235273    -0.04900
C3454       C  0.90233204  0.74123367  0.67016745     0.09200
C3455       C  0.88793916  0.72072535  0.66643422    -0.02300
C3456       C  0.86366084  0.72055652  0.67371178    -0.00600
C3457       C  0.85327443  0.74111023  0.68417824    -0.04200
C3458       C  0.86794239  0.76121539  0.68880947     0.02800
C3459       C  0.92721752  0.74307917  0.65969319     0.09700
C3460       C  0.89786636  0.69978627  0.65483813     0.35600
C3461       C  0.85808493  0.78206027  0.70071601     0.39000
C3462       C  0.94622161  0.72863755  0.66763566    -0.04500
C3463       C  0.96900700  0.72969904  0.65625055     0.02600
C3464       C  0.97420298  0.74741455  0.63827098    -0.04100
C3465       C  0.95575783  0.76498352  0.63492682    -0.00400
C3466       C  0.93211892  0.76062027  0.64245248    -0.02900
C3467       C  0.94214741  0.71222005  0.68726097     0.36300
C3468       C  0.96079982  0.78970704  0.62950634     0.39900
C3469       C  0.98638009  0.71193596  0.66335674     0.39100
C3470       C  0.91273458  0.77463297  0.63239507     0.36000
C3471       C  0.90731558  0.78147301  0.68814074     0.36700
C3472       C  0.84919499  0.69939942  0.66969003     0.39900
N3473       N  0.99926371  0.69734710  0.67026612    -0.38100
N3474       N  0.93889410  0.69909235  0.70286714    -0.39700
N3475       N  0.96408559  0.80991038  0.62674395    -0.37500
N3476       N  0.89727723  0.78567189  0.62428075    -0.39900
N3477       N  0.90560708  0.68280608  0.64591196    -0.39600
N3478       N  0.83769231  0.68247924  0.66659569    -0.37300
N3479       N  0.85021985  0.79872212  0.71012179    -0.38300
N3480       N  0.91922312  0.79779902  0.69258604    -0.40000
loop_ 
_geom_bond_atom_site_label_1 
_geom_bond_atom_site_label_2 
_geom_bond_distance 
_geom_bond_site_symmetry_2 
_ccdc_geom_bond_type 
O1           Mg3   2.133       .  S
O1           Mg9   2.138       .  S
O1           C36   1.240       .  S
C2           O15   1.240       .  S
C2           O39   1.274       .  A
C2           H41   1.080       .  S
Mg3          O32   2.139       .  S
Mg3          O47   2.338       .  S
Mg3          O43   2.253       .  S
Mg3          O14   2.308       .  S
O4          Mg46   2.131       .  S
O4          Mg29   2.134       .  S
O4           C25   1.238       .  S
O5           C36   1.274       .  A
O5          Mg29   2.307       .  S
C6            O8   1.272       .  A
C6           O20   1.279       .  A
C6         C3345   1.492       .  S
O7           C35   1.272       .  A
O7           Mg9   2.305       .  S
O8          Mg40   2.262       .  S
Mg9          O15   2.139       .  S
Mg9          O23   2.280       .  S
Mg9          O11   2.314       .  S
C10          O48   1.276       .  A
C10          O16   1.277       .  A
C10        C3457   1.496       .  S
O11          C18   1.277       .  A
H12          C25   1.080       .  S
C13          O27   1.239       .  S
C13          O28   1.272       .  A
C13          H38   1.079       .  S
O14          C37   1.273       .  A
O15         Mg29   2.139       .  S
O16         Mg46   2.320       .  S
C17          O30   1.272       .  A
C17          O22   1.278       .  A
C17        C3317   1.502       .  S
C18          O45   1.273       .  A
C18        C3429   1.494       .  S
Mg19         O26   2.138       .  S
Mg19         O27   2.141       .  S
Mg19         O20   2.333       .  S
Mg19         O21   2.300       .  S
Mg19         O48   2.279       .  S
O21          C25   1.272       .  A
O22         Mg29   2.332       .  S
O23          C42   1.274       .  A
O24          C44   1.275       .  A
O24         Mg40   2.312       .  S
O26         Mg40   2.138       .  S
O26          C37   1.238       .  S
O27         Mg46   2.134       .  S
O28         Mg40   2.300       .  S
Mg29         O45   2.270       .  S
O30         Mg46   2.259       .  S
H31          C36   1.079       .  S
O32         Mg40   2.149       .  S
O32          C35   1.238       .  S
H33          C35   1.080       .  S
H34          C37   1.080       .  S
O39         Mg46   2.307       .  S
C42          O47   1.278       .  A
C42        C3373   1.503       .  S
O43          C44   1.271       .  A
C44        C3401   1.492       .  S
C49        C3240   1.606       .  S
C49        C3268   1.608       .  S
C49        C3296   1.616   1_565  S
C49        C3408   1.605       .  S
O50         Mg52   2.121       .  S
O50         Mg58   2.146       .  S
O50          C85   1.238       .  S
C51          O64   1.239       .  S
C51          O88   1.272       .  A
C51          H90   1.079       .  S
Mg52         O81   2.136       .  S
Mg52         O96   2.329       .  S
Mg52         O92   2.258       .  S
Mg52         O63   2.313       .  S
O53         Mg95   2.136       .  S
O53         Mg78   2.135       .  S
O53          C74   1.237       .  S
O54          C85   1.270       .  A
O54         Mg78   2.289       .  S
C55          O57   1.269       .  A
C55          O69   1.280       .  A
C55        C3100   1.493       .  S
O56          C84   1.271       .  A
O56         Mg58   2.296       .  S
O57         Mg89   2.236       .  S
Mg58         O64   2.138       .  S
Mg58         O72   2.267       .  S
Mg58         O60   2.297       .  S
C59          O97   1.277       .  A
C59          O65   1.277       .  A
C59        C3149   1.503       .  S
O60          C67   1.273       .  A
H61          C74   1.078       .  S
C62          O76   1.238       .  S
C62          O77   1.273       .  A
C62          H87   1.079       .  S
O63          C86   1.274       .  A
O64         Mg78   2.151       .  S
O65         Mg95   2.319       .  S
C66          O79   1.274       .  A
C66          O71   1.274       .  A
C66        C3121   1.480       .  S
C67          O94   1.271       .  A
C67        C3289   1.475       .  S
Mg68         O75   2.154       .  S
Mg68         O76   2.147       .  S
Mg68         O69   2.342       .  S
Mg68         O70   2.302       .  S
Mg68         O97   2.283       .  S
O70          C74   1.271       .  A
O71         Mg78   2.302       .  S
O72          C91   1.273       .  A
O73          C93   1.275       .  A
O73         Mg89   2.313       .  S
O75         Mg89   2.144       .  S
O75          C86   1.239       .  S
O76         Mg95   2.149       .  S
O77         Mg89   2.305       .  S
Mg78         O94   2.254       .  S
O79         Mg95   2.278       .  S
H80          C85   1.080       .  S
O81         Mg89   2.132       .  S
O81          C84   1.237       .  S
H82          C84   1.078       .  S
H83          C86   1.079       .  S
O88         Mg95   2.300       .  S
C91          O96   1.278       .  A
C91        C3205   1.499       .  S
O92          C93   1.272       .  A
C93        C3177   1.492       .  S
C98        C3037   1.608       .  S
C98        C3065   1.618       .  S
C98        C3093   1.617       .  S
C98        C3324   1.613       .  S
C99        C2953   1.608       .  S
C99        C2981   1.612       .  S
C99        C3009   1.609       .  S
C99        C3352   1.612       .  S
O100       Mg102   2.149       .  S
O100       Mg108   2.145       .  S
O100        C135   1.240       .  S
C101        O114   1.238       .  S
C101        O138   1.273       .  A
C101        H140   1.080       .  S
Mg102       O131   2.146       .  S
Mg102       O146   2.342       .  S
Mg102       O142   2.300       .  S
Mg102       O113   2.299       .  S
O103       Mg145   2.139       .  S
O103       Mg128   2.137       .  S
O103        C124   1.238       .  S
O104        C135   1.274       .  A
O104       Mg128   2.310       .  S
C105        O107   1.272       .  A
C105        O119   1.274       .  A
C105       C3016   1.495       .  S
O106        C134   1.272       .  A
O106       Mg108   2.298       .  S
O107       Mg139   2.270       .  S
Mg108       O114   2.147       .  S
Mg108       O122   2.271       .  S
Mg108       O110   2.321       .  S
C109        O147   1.271       .  A
C109        O115   1.278       .  A
C109       C2869   1.494       .  S
O110        C117   1.277       .  A
H111        C124   1.080       .  S
C112        O126   1.240       .  S
C112        O127   1.273       .  A
C112        H137   1.080       .  S
O113        C136   1.272       .  A
O114       Mg128   2.140       .  S
O115       Mg145   2.333       .  S
C116        O129   1.272       .  A
C116        O121   1.279       .  A
C116       C2904   1.494       .  S
C117        O144   1.273       .  A
C117       C2820   1.491       .  S
Mg118       O125   2.129       .  S
Mg118       O126   2.139       .  S
Mg118       O119   2.300       .  S
Mg118       O120   2.300       .  S
Mg118       O147   2.259       .  S
O120        C124   1.272       .  A
O121       Mg128   2.339       .  S
O122        C141   1.274       .  A
O123        C143   1.275       .  A
O123       Mg139   2.303       .  S
O125       Mg139   2.138       .  S
O125        C136   1.238       .  S
O126       Mg145   2.129       .  S
O127       Mg139   2.301       .  S
Mg128       O144   2.264       .  S
O129       Mg145   2.253       .  S
H130        C135   1.079       .  S
O131       Mg139   2.136       .  S
O131        C134   1.238       .  S
H132        C134   1.080       .  S
H133        C136   1.079       .  S
O138       Mg145   2.308       .  S
C141        O146   1.281       .  A
C141       C2925   1.502       .  S
O142        C143   1.278       .  A
C143       C2841   1.501       .  S
C148       C2764   1.606       .  S
C148       C2785   1.613   1_556  S
C148       C2813   1.616   1_556  S
C148       C3436   1.612       .  S
C149       C2673   1.612       .  S
C149       C2701   1.605       .  S
C149       C2729   1.612       .  S
C149       C2876   1.615       .  S
C150       C2568   1.608   1_545  S
C150       C2589   1.615       .  S
C150       C2624   1.608   1_545  S
C150       C2652   1.609       .  S
C151       C2484   1.615   1_556  S
C151       C2512   1.609       .  S
C151       C2540   1.609       .  S
C151       C3212   1.610       .  S
C152       C2365   1.610       .  S
C152       C2393   1.609       .  S
C152       C2421   1.618       .  S
C152       C2449   1.615       .  S
C153       C2288   1.621       .  S
C153       C2316   1.615       .  S
C153       C2337   1.624       .  S
C153       C3156   1.613       .  S
C154       C2197   1.617       .  S
C154       C2232   1.617       .  S
C154       C2253   1.629       .  S
C154       C2897   1.610       .  S
C155       C2085   1.613       .  S
C155       C2120   1.610       .  S
C155       C2141   1.618       .  S
C155       C2169   1.613       .  S
C156       C2008   1.612       .  S
C156       C2029   1.618       .  S
C156       C2064   1.617       .  S
C156       C2932   1.618   1_455  S
O157       Mg159   2.135       .  S
O157       Mg165   2.141       .  S
O157        C192   1.238       .  S
C158        O171   1.238       .  S
C158        O195   1.272       .  A
C158        H197   1.080       .  S
Mg159       O188   2.139       .  S
Mg159       O203   2.328       .  S
Mg159       O199   2.270       .  S
Mg159       O170   2.308       .  S
O160       Mg202   2.152       .  S
O160       Mg185   2.156       .  S
O160        C181   1.238       .  S
O161        C192   1.271       .  A
O161       Mg185   2.298       .  S
C162        O164   1.272       .  A
C162        O176   1.278       .  A
C162       C1980   1.492       .  S
O163        C191   1.273       .  A
O163       Mg165   2.305       .  S
O164       Mg196   2.273       .  S
Mg165       O171   2.131       .  S
Mg165       O179   2.257       .  S
Mg165       O167   2.333       .  S
C166        O204   1.273       .  A
C166        O172   1.278       .  A
C166       C2001   1.496       .  S
O167        C174   1.279       .  A
H168        C181   1.079       .  S
C169        O183   1.239       .  S
C169        O184   1.273       .  A
C169        H194   1.078       .  S
O170        C193   1.274       .  A
O171       Mg185   2.141       .  S
O172       Mg202   2.329       .  S
C173        O186   1.273       .  A
C173        O178   1.277       .  A
C173       C1917   1.490       .  S
C174        O201   1.276       .  A
C174       C1945   1.508       .  S
Mg175       O182   2.131       .  S
Mg175       O183   2.142       .  S
Mg175       O176   2.328       .  S
Mg175       O177   2.306       .  S
Mg175       O204   2.265       .  S
O177        C181   1.273       .  A
O178       Mg185   2.312       .  S
O179        C198   1.273       .  A
O180        C200   1.273       .  A
O180       Mg196   2.295       .  S
O182       Mg196   2.136       .  S
O182        C193   1.239       .  S
O183       Mg202   2.135       .  S
O184       Mg196   2.302       .  S
Mg185       O201   2.292       .  S
O186       Mg202   2.255       .  S
H187        C192   1.080       .  S
O188       Mg196   2.144       .  S
O188        C191   1.239       .  S
H189        C191   1.079       .  S
H190        C193   1.079       .  S
O195       Mg202   2.298       .  S
C198        O203   1.279       .  A
C198       C2680   1.494       .  S
O199        C200   1.273       .  A
C200       C2176   1.495       .  S
C205       C1833   1.619   1_554  S
C205       C1868   1.614       .  S
C205       C1889   1.614       .  S
C205       C1924   1.609       .  S
C206       C1749   1.608       .  S
C206       C1777   1.615       .  S
C206       C1805   1.609       .  S
C206       C3128   1.614       .  S
O207       Mg209   2.129       .  S
O207       Mg215   2.139       .  S
O207        C242   1.235       .  S
C208        O221   1.240       .  S
C208        O245   1.273       .  A
C208        H247   1.080       .  S
Mg209       O238   2.148       .  S
Mg209       O253   2.294       .  S
Mg209       O249   2.261       .  S
Mg209       O220   2.301       .  S
O210       Mg252   2.144       .  S
O210       Mg235   2.134       .  S
O210        C231   1.238       .  S
O211        C242   1.269       .  A
O211       Mg235   2.296       .  S
C212        O214   1.273       .  A
C212        O226   1.283       .  A
C212       C1721   1.498       .  S
O213        C241   1.274       .  A
O213       Mg215   2.309       .  S
O214       Mg246   2.268       .  S
Mg215       O221   2.134       .  S
Mg215       O229   2.273       .  S
Mg215       O217   2.329       .  S
C216        O254   1.277       .  A
C216        O222   1.272       .  A
C216       C2596   1.500       .  S
O217        C224   1.279       .  A
H218        C231   1.079       .  S
C219        O233   1.237       .  S
C219        O234   1.271       .  A
C219        H244   1.079       .  S
O220        C243   1.272       .  A
O221       Mg235   2.152       .  S
O222       Mg252   2.279       .  S
C223        O236   1.271       .  A
C223        O228   1.276       .  A
C223       C1665   1.487       .  S
C224        O251   1.274       .  A
C224       C1693   1.503       .  S
Mg225       O232   2.134       .  S
Mg225       O233   2.152       .  S
Mg225       O226   2.357       .  S
Mg225       O227   2.306       .  S
Mg225       O254   2.294       .  S
O227        C231   1.273       .  A
O228       Mg235   2.311       .  S
O229        C248   1.273       .  A
O230        C250   1.275       .  A
O230       Mg246   2.298       .  S
O232       Mg246   2.144       .  S
O232        C243   1.238       .  S
O233       Mg252   2.143       .  S
O234       Mg246   2.297       .  S
Mg235       O251   2.275       .  S
O236       Mg252   2.270       .  S
H237        C242   1.080       .  S
O238       Mg246   2.145       .  S
O238        C241   1.240       .  S
H239        C241   1.080       .  S
H240        C243   1.080       .  S
O245       Mg252   2.295       .  S
C248        O253   1.274       .  A
C248       C2400   1.486       .  S
O249        C250   1.270       .  A
C250       C1812   1.484       .  S
C255       C1616   1.610       .  S
C255       C1637   1.613       .  S
C255       C1672   1.619   1_655  S
C255       C3184   1.609       .  S
O256       Mg258   2.120       .  S
O256       Mg264   2.140       .  S
O256        C291   1.239       .  S
C257        O270   1.239       .  S
C257        O294   1.274       .  A
C257        H296   1.078       .  S
Mg258       O287   2.152       .  S
Mg258       O302   2.346       .  S
Mg258       O298   2.245       .  S
Mg258       O269   2.309       .  S
O259       Mg301   2.138       .  S
O259       Mg284   2.145       .  S
O259        C280   1.237       .  S
O260        C291   1.273       .  A
O260       Mg284   2.303       .  S
C261        O263   1.274       .  A
C261        O275   1.280       .  A
C261       C2281   1.495       .  S
O262        C290   1.271       .  A
O262       Mg264   2.299       .  S
O263       Mg295   2.277       .  S
Mg264       O270   2.145       .  S
Mg264       O278   2.278       .  S
Mg264       O266   2.282       .  S
C265        O303   1.279       .  A
C265        O271   1.281       .  A
C265       C2260   1.519       .  S
O266        C273   1.272       .  A
H267        C280   1.079       .  S
C268        O282   1.238       .  S
C268        O283   1.272       .  A
C268        H293   1.079       .  S
O269        C292   1.273       .  A
O270       Mg284   2.144       .  S
O271       Mg301   2.340       .  S
C272        O285   1.275       .  A
C272        O277   1.277       .  A
C272       C1588   1.506       .  S
C273        O300   1.274       .  A
C273       C2477   1.496       .  S
Mg274       O281   2.161       .  S
Mg274       O282   2.149       .  S
Mg274       O275   2.339       .  S
Mg274       O276   2.303       .  S
Mg274       O303   2.310       .  S
O276        C280   1.272       .  A
O277       Mg284   2.318       .  S
O278        C297   1.273       .  A
O279        C299   1.276       .  A
O279       Mg295   2.304       .  S
O281       Mg295   2.154       .  S
O281        C292   1.238       .  S
O282       Mg301   2.141       .  S
O283       Mg295   2.296       .  S
Mg284       O300   2.281       .  S
O285       Mg301   2.287       .  S
H286        C291   1.079       .  S
O287       Mg295   2.152       .  S
O287        C290   1.237       .  S
H288        C290   1.079       .  S
H289        C292   1.079       .  S
O294       Mg301   2.309       .  S
C297        O302   1.280       .  A
C297       C1532   1.504       .  S
O298        C299   1.271       .  A
C299       C1560   1.480       .  S
C304       C1469   1.614       .  S
C304       C1497   1.607       .  S
C304       C1525   1.619   1_565  S
C304       C2848   1.610       .  S
C305       C1385   1.611       .  S
C305       C1420   1.613       .  S
C305       C1448   1.606   1_655  S
C305       C1553   1.606       .  S
O306       Mg308   2.127       .  S
O306       Mg314   2.141       .  S
O306        C341   1.238       .  S
C307        O320   1.239       .  S
C307        O344   1.273       .  A
C307        H346   1.080       .  S
Mg308       O337   2.134       .  S
Mg308       O352   2.326       .  S
Mg308       O348   2.251       .  S
Mg308       O319   2.309       .  S
O309       Mg351   2.135       .  S
O309       Mg334   2.153       .  S
O309        C330   1.238       .  S
O310        C341   1.271       .  A
O310       Mg334   2.294       .  S
C311        O313   1.272       .  A
C311        O325   1.279       .  A
C311       C1329   1.496       .  S
O312        C340   1.272       .  A
O312       Mg314   2.298       .  S
O313       Mg345   2.258       .  S
Mg314       O320   2.142       .  S
Mg314       O328   2.271       .  S
Mg314       O316   2.306       .  S
C315        O353   1.273       .  A
C315        O321   1.278       .  A
C315       C1280   1.505       .  S
O316        C323   1.275       .  A
H317        C330   1.078       .  S
C318        O332   1.239       .  S
C318        O333   1.274       .  A
C318        H343   1.078       .  S
O319        C342   1.274       .  A
O320       Mg334   2.149       .  S
O321       Mg351   2.337       .  S
C322        O335   1.271       .  A
C322        O327   1.278       .  A
C322       C1441   1.483       .  S
C323        O350   1.276       .  A
C323       C1252   1.488       .  S
Mg324       O331   2.139       .  S
Mg324       O332   2.133       .  S
Mg324       O325   2.341       .  S
Mg324       O326   2.313       .  S
Mg324       O353   2.265       .  S
O326        C330   1.274       .  A
O327       Mg334   2.327       .  S
O328        C347   1.274       .  A
O329        C349   1.277       .  A
O329       Mg345   2.323       .  S
O331       Mg345   2.134       .  S
O331        C342   1.239       .  S
O332       Mg351   2.143       .  S
O333       Mg345   2.309       .  S
Mg334       O350   2.287       .  S
O335       Mg351   2.252       .  S
H336        C341   1.079       .  S
O337       Mg345   2.136       .  S
O337        C340   1.238       .  S
H338        C340   1.079       .  S
H339        C342   1.080       .  S
O344       Mg351   2.306       .  S
C347        O352   1.277       .  A
C347       C1364   1.502       .  S
O348        C349   1.271       .  A
C349       C1308   1.496       .  S
C354       C1189   1.607       .  S
C354       C1224   1.610       .  S
C354       C1357   1.611   1_556  S
C354       C1700   1.617       .  S
C355       C1140   1.615       .  S
C355       C1161   1.613   1_545  S
C355       C1336   1.611       .  S
C355       C1952   1.626   1_545  S
O356       Mg358   2.132       .  S
O356       Mg364   2.139   1_545  S
O356        C391   1.238       .  S
C357        O370   1.238   1_455  S
C357        O394   1.272       .  A
C357        H396   1.078       .  S
Mg358       O387   2.144   1_655  S
Mg358       O402   2.316       .  S
Mg358       O398   2.271       .  S
Mg358       O369   2.300       .  S
O359       Mg401   2.142       .  S
O359       Mg384   2.135   1_455  S
O359        C380   1.239   1_455  S
O360        C391   1.272   1_565  A
O360       Mg384   2.300       .  S
C361        O363   1.271       .  A
C361        O375   1.277       .  A
C361       C1105   1.496       .  S
O362        C390   1.273   1_565  A
O362       Mg364   2.299   1_455  S
O363       Mg395   2.251       .  S
Mg364       O370   2.133       .  S
Mg364       O378   2.251       .  S
Mg364       O366   2.320       .  S
C365        O403   1.273   1_565  A
C365        O371   1.275       .  A
C365       C2617   1.499       .  S
O366        C373   1.276       .  A
H367        C380   1.080       .  S
C368        O382   1.239       .  S
C368        O383   1.274   1_565  A
C368        H393   1.078       .  S
O369        C392   1.272   1_655  A
O370       Mg384   2.137       .  S
O371       Mg401   2.313       .  S
C372        O385   1.274       .  A
C372        O377   1.277   1_455  A
C372       C1077   1.494       .  S
C373        O400   1.273       .  A
C373       C2960   1.499       .  S
Mg374       O381   2.141       .  S
Mg374       O382   2.134   1_545  S
Mg374       O375   2.325       .  S
Mg374       O376   2.307       .  S
Mg374       O403   2.270       .  S
O376        C380   1.273   1_445  A
O377       Mg384   2.316       .  S
O378        C397   1.272   1_565  A
O379        C399   1.277       .  A
O379       Mg395   2.326       .  S
O381       Mg395   2.138       .  S
O381        C392   1.238       .  S
O382       Mg401   2.145       .  S
O383       Mg395   2.310       .  S
Mg384       O400   2.263       .  S
O385       Mg401   2.273       .  S
H386        C391   1.079       .  S
O387       Mg395   2.128       .  S
O387        C390   1.240       .  S
H388        C390   1.080       .  S
H389        C392   1.079       .  S
O394       Mg401   2.298       .  S
C397        O402   1.277       .  A
C397       C1504   1.486       .  S
O398        C399   1.274   1_655  A
C399       C1413   1.490       .  S
O404       Mg406   2.134       .  S
O404       Mg412   2.142   1_455  S
O404        C439   1.237       .  S
C405        O418   1.238       .  S
C405        O442   1.271   1_545  A
C405        H444   1.079       .  S
Mg406       O435   2.154   1_545  S
Mg406       O450   2.319       .  S
Mg406       O446   2.262   1_545  S
Mg406       O417   2.300   1_546  S
O407       Mg449   2.146   1_545  S
O407       Mg432   2.137       .  S
O407        C428   1.239       .  S
O408        C439   1.271       .  A
O408       Mg432   2.300   1_456  S
C409        O411   1.275       .  A
C409        O423   1.281       .  A
C409       C2057   1.496       .  S
O410        C438   1.273   1_655  A
O410       Mg412   2.302   1_565  S
O411       Mg443   2.280   1_554  S
Mg412       O418   2.118       .  S
Mg412       O426   2.240   1_655  S
Mg412       O414   2.293       .  S
C413        O451   1.276       .  A
C413        O419   1.273       .  A
C413       C1476   1.505       .  S
O414        C421   1.274       .  A
H415        C428   1.078       .  S
C416        O430   1.238       .  S
C416        O431   1.272   1_554  A
C416        H441   1.079       .  S
O417        C440   1.271       .  A
O418       Mg432   2.148   1_556  S
O419       Mg449   2.291       .  S
C420        O433   1.271       .  A
C420        O425   1.275       .  A
C420       C2533   1.483       .  S
C421        O448   1.274       .  A
C421       C1644   1.501       .  S
Mg422       O429   2.144       .  S
Mg422       O430   2.139   1_455  S
Mg422       O423   2.336       .  S
Mg422       O424   2.306   1_565  S
Mg422       O451   2.296   1_455  S
O424        C428   1.273   1_455  A
O425       Mg432   2.305       .  S
O426        C445   1.268       .  A
O427        C447   1.278       .  A
O427       Mg443   2.322       .  S
O429       Mg443   2.149   1_554  S
O429        C440   1.237       .  S
O430       Mg449   2.138       .  S
O431       Mg443   2.302   1_655  S
Mg432       O448   2.286   1_554  S
O433       Mg449   2.259   1_545  S
H434        C439   1.078       .  S
O435       Mg443   2.149       .  S
O435        C438   1.239       .  S
H436        C438   1.078       .  S
H437        C440   1.080       .  S
O442       Mg449   2.292   1_556  S
C445        O450   1.277       .  A
C445       C2645   1.485       .  S
O446        C447   1.272       .  A
C447       C1896   1.487       .  S
O452       Mg454   2.143       .  S
O452       Mg460   2.144       .  S
O452        C487   1.237       .  S
C453        O466   1.238       .  S
C453        O490   1.273       .  A
C453        H492   1.079       .  S
Mg454       O483   2.140       .  S
Mg454       O498   2.303       .  S
Mg454       O494   2.268       .  S
Mg454       O465   2.294       .  S
O455       Mg497   2.132       .  S
O455       Mg480   2.159       .  S
O455        C476   1.240       .  S
O456        C487   1.271   1_545  A
O456       Mg480   2.302       .  S
C457        O459   1.268       .  A
C457        O471   1.275   1_565  A
C457       C3261   1.495       .  S
O458        C486   1.270       .  A
O458       Mg460   2.290       .  S
O459       Mg491   2.234       .  S
Mg460       O466   2.154       .  S
Mg460       O474   2.270       .  S
Mg460       O462   2.312       .  S
C461        O499   1.268       .  A
C461        O467   1.277       .  A
C461       C1784   1.511       .  S
O462        C469   1.275       .  A
H463        C476   1.079       .  S
C464        O478   1.239   1_565  S
C464        O479   1.273       .  A
C464        H489   1.078       .  S
O465        C488   1.271   1_565  A
O466       Mg480   2.146   1_565  S
O467       Mg497   2.338       .  S
C468        O481   1.270       .  A
C468        O473   1.280       .  A
C468       C1056   1.488       .  S
C469        O496   1.276   1_565  A
C469       C1168   1.483       .  S
Mg470       O477   2.126       .  S
Mg470       O478   2.117       .  S
Mg470       O471   2.320       .  S
Mg470       O472   2.324       .  S
Mg470       O499   2.253       .  S
O472        C476   1.277       .  A
O473       Mg480   2.355       .  S
O474        C493   1.274       .  A
O475        C495   1.273       .  A
O475       Mg491   2.302       .  S
O477       Mg491   2.130   1_545  S
O477        C488   1.238       .  S
O478       Mg497   2.131       .  S
O479       Mg491   2.310       .  S
Mg480       O496   2.286       .  S
O481       Mg497   2.244       .  S
H482        C487   1.079       .  S
O483       Mg491   2.116       .  S
O483        C486   1.237       .  S
H484        C486   1.080       .  S
H485        C488   1.078       .  S
O490       Mg497   2.312   1_565  S
C493        O498   1.274       .  A
C493       C2736   1.481       .  S
O494        C495   1.272       .  A
C495       C2988   1.478       .  S
C500       C1049   1.618       .  S
C500       C1112   1.607       .  S
C500       C1273   1.615       .  S
C500       C1728   1.616       .  S
O501       Mg503   2.122   1_556  S
O501       Mg509   2.142   1_545  S
O501        C536   1.239       .  S
C502        O515   1.237       .  S
C502        O539   1.271   1_556  A
C502        H541   1.080       .  S
Mg503       O532   2.149       .  S
Mg503       O547   2.318   1_554  S
Mg503       O543   2.259       .  S
Mg503       O514   2.303       .  S
O504       Mg546   2.139   1_556  S
O504       Mg529   2.133       .  S
O504        C525   1.238       .  S
O505        C536   1.272       .  A
O505       Mg529   2.298   1_545  S
C506        O508   1.273       .  A
C506        O520   1.278       .  A
C506       C1133   1.491       .  S
O507        C535   1.273   1_565  A
O507       Mg509   2.299   1_554  S
O508       Mg540   2.275       .  S
Mg509       O515   2.140       .  S
Mg509       O523   2.281   1_565  S
Mg509       O511   2.270       .  S
C510        O548   1.275       .  A
C510        O516   1.276       .  A
C510       C1861   1.490       .  S
O511        C518   1.272       .  A
H512        C525   1.079       .  S
C513        O527   1.239       .  S
C513        O528   1.274       .  A
C513        H538   1.080       .  S
O514        C537   1.272       .  A
O515       Mg529   2.154       .  S
O516       Mg546   2.309       .  S
C517        O530   1.275       .  A
C517        O522   1.281       .  A
C517        C993   1.520       .  S
C518        O545   1.275       .  A
C518       C3233   1.490       .  S
Mg519       O526   2.148       .  S
Mg519       O527   2.154   1_545  S
Mg519       O520   2.319       .  S
Mg519       O521   2.301   1_554  S
Mg519       O548   2.285   1_545  S
O521        C525   1.272   1_545  A
O522       Mg529   2.337       .  S
O523        C542   1.272       .  A
O524        C544   1.277       .  A
O524       Mg540   2.321       .  S
O526       Mg540   2.149       .  S
O526        C537   1.238       .  S
O527       Mg546   2.159       .  S
O528       Mg540   2.311   1_565  S
Mg529       O545   2.286       .  S
O530       Mg546   2.298   1_556  S
H531        C536   1.079       .  S
O532       Mg540   2.139       .  S
O532        C535   1.239       .  S
H533        C535   1.079       .  S
H534        C537   1.080       .  S
O539       Mg546   2.299       .  S
C542        O547   1.277       .  A
C542       C2505   1.492       .  S
O543        C544   1.271       .  A
C544       C1021   1.481       .  S
C549        C965   1.611       .  S
C549       C1028   1.612       .  S
C549       C1301   1.608       .  S
C549       C1581   1.618       .  S
O550       Mg552   2.146       .  S
O550       Mg558   2.151   1_554  S
O550        C585   1.239       .  S
C551        O564   1.238       .  S
C551        O588   1.272       .  A
C551        H590   1.079       .  S
Mg552       O581   2.141       .  S
Mg552       O596   2.320       .  S
Mg552       O592   2.279       .  S
Mg552       O563   2.306       .  S
O553       Mg595   2.142       .  S
O553       Mg578   2.150       .  S
O553        C574   1.238   1_556  S
O554        C585   1.273       .  A
O554       Mg578   2.301   1_554  S
C555        O557   1.270       .  A
C555        O569   1.277       .  A
C555        C972   1.495       .  S
O556        C584   1.272   1_556  A
O556       Mg558   2.301       .  S
O557       Mg589   2.247       .  S
Mg558       O564   2.148       .  S
Mg558       O572   2.277       .  S
Mg558       O560   2.336       .  S
C559        O597   1.273   1_556  A
C559        O565   1.278       .  A
C559       C1217   1.492       .  S
O560        C567   1.279       .  A
H561        C574   1.079       .  S
C562        O576   1.238       .  S
C562        O577   1.273   1_556  A
C562        H587   1.079       .  S
O563        C586   1.273       .  A
O564       Mg578   2.146       .  S
O565       Mg595   2.329       .  S
C566        O579   1.273       .  A
C566        O571   1.279       .  A
C566       C2428   1.487       .  S
C567        O594   1.274       .  A
C567        C937   1.490       .  S
Mg568       O575   2.143       .  S
Mg568       O576   2.146   1_554  S
Mg568       O569   2.330       .  S
Mg568       O570   2.303       .  S
Mg568       O597   2.260       .  S
O570        C574   1.272       .  A
O571       Mg578   2.339       .  S
O572        C591   1.274   1_556  A
O573        C593   1.274       .  A
O573       Mg589   2.308       .  S
O575       Mg589   2.137       .  S
O575        C586   1.238       .  S
O576       Mg595   2.142       .  S
O577       Mg589   2.304       .  S
Mg578       O594   2.269       .  S
O579       Mg595   2.266       .  S
H580        C585   1.079       .  S
O581       Mg589   2.140       .  S
O581        C584   1.238       .  S
H582        C584   1.080       .  S
H583        C586   1.080       .  S
O588       Mg595   2.304       .  S
C591        O596   1.276       .  A
C591       C2792   1.483       .  S
O592        C593   1.273       .  A
C593       C2204   1.484       .  S
O598       Mg600   2.146       .  S
O598       Mg606   2.144   1_655  S
O598        C633   1.238       .  S
C599        O612   1.238       .  S
C599        O636   1.272       .  A
C599        H638   1.080       .  S
Mg600       O629   2.141       .  S
Mg600       O644   2.316       .  S
Mg600       O640   2.283       .  S
Mg600       O611   2.300       .  S
O601       Mg643   2.148       .  S
O601       Mg626   2.149       .  S
O601        C622   1.240       .  S
O602        C633   1.272       .  A
O602       Mg626   2.304   1_655  S
C603        O605   1.269       .  A
C603        O617   1.281       .  A
C603       C1392   1.483       .  S
O604        C632   1.272       .  A
O604       Mg606   2.298   1_655  S
O605       Mg637   2.248       .  S
Mg606       O612   2.144       .  S
Mg606       O620   2.267   1_455  S
Mg606       O608   2.305       .  S
C607        O645   1.275       .  A
C607        O613   1.278       .  A
C607        C916   1.500       .  S
O608        C615   1.276       .  A
H609        C622   1.080       .  S
C610        O624   1.239       .  S
C610        O625   1.273       .  A
C610        H635   1.080       .  S
O611        C634   1.272       .  A
O612       Mg626   2.151       .  S
O613       Mg643   2.316       .  S
C614        O627   1.275       .  A
C614        O619   1.280       .  A
C614       C2148   1.496       .  S
C615        O642   1.276       .  A
C615        C881   1.500       .  S
Mg616       O623   2.137       .  S
Mg616       O624   2.145   1_655  S
Mg616       O617   2.351       .  S
Mg616       O618   2.310       .  S
Mg616       O645   2.278   1_655  S
O618        C622   1.274   1_655  A
O619       Mg626   2.339       .  S
O620        C639   1.272       .  A
O621        C641   1.276       .  A
O621       Mg637   2.313       .  S
O623       Mg637   2.137       .  S
O623        C634   1.238       .  S
O624       Mg643   2.145       .  S
O625       Mg637   2.305   1_455  S
Mg626       O642   2.295       .  S
O627       Mg643   2.280       .  S
H628        C633   1.079       .  S
O629       Mg637   2.127       .  S
O629        C632   1.238       .  S
H630        C632   1.080       .  S
H631        C634   1.080       .  S
O636       Mg643   2.301       .  S
C639        O644   1.276       .  A
C639       C3044   1.482       .  S
O640        C641   1.274       .  A
C641       C2344   1.500       .  S
O646       Mg648   2.132   1_554  S
O646       Mg654   2.137       .  S
O646        C681   1.236       .  S
C647        O660   1.237   1_556  S
C647        O684   1.271       .  A
C647        H686   1.080       .  S
Mg648       O677   2.139       .  S
Mg648       O692   2.290       .  S
Mg648       O688   2.276       .  S
Mg648       O659   2.297   1_455  S
O649       Mg691   2.157   1_554  S
O649       Mg674   2.149       .  S
O649        C670   1.238       .  S
O650        C681   1.269       .  A
O650       Mg674   2.295   1_455  S
C651        O653   1.270       .  A
C651        O665   1.278       .  A
C651       C3072   1.487       .  S
O652        C680   1.273       .  A
O652       Mg654   2.302   1_556  S
O653       Mg685   2.250   1_655  S
Mg654       O660   2.129       .  S
Mg654       O668   2.255       .  S
Mg654       O656   2.310       .  S
C655        O693   1.271       .  A
C655        O661   1.276       .  A
C655       C2757   1.481       .  S
O656        C663   1.277       .  A
H657        C670   1.079       .  S
C658        O672   1.238       .  S
C658        O673   1.272   1_655  A
C658        H683   1.078       .  S
O659        C682   1.272       .  A
O660       Mg674   2.148   1_455  S
O661       Mg691   2.303       .  S
C662        O675   1.275       .  A
C662        O667   1.276       .  A
C662       C2036   1.489       .  S
C663        O690   1.276       .  A
C663        C853   1.506       .  S
Mg664       O671   2.127       .  S
Mg664       O672   2.153       .  S
Mg664       O665   2.324       .  S
Mg664       O666   2.307       .  S
Mg664       O693   2.259       .  S
O666        C670   1.273   1_556  A
O667       Mg674   2.306       .  S
O668        C687   1.271       .  A
O669        C689   1.274       .  A
O669       Mg685   2.304       .  S
O671       Mg685   2.144   1_655  S
O671        C682   1.238       .  S
O672       Mg691   2.155       .  S
O673       Mg685   2.304       .  S
Mg674       O690   2.293   1_655  S
O675       Mg691   2.286   1_554  S
H676        C681   1.080       .  S
O677       Mg685   2.124       .  S
O677        C680   1.239       .  S
H678        C680   1.080       .  S
H679        C682   1.079       .  S
O684       Mg691   2.294   1_455  S
C687        O692   1.274   1_554  A
C687       C1196   1.492   1_554  S
O688        C689   1.273       .  A
C689       C1609   1.493       .  S
C694        C860   1.620       .  S
C694        C909   1.611       .  S
C694       C1245   1.620       .  S
C694       C1973   1.612       .  S
O695       Mg697   2.136       .  S
O695       Mg703   2.146       .  S
O695        C730   1.239       .  S
C696        O709   1.239       .  S
C696        O733   1.274       .  A
C696        H735   1.079       .  S
Mg697       O726   2.142       .  S
Mg697       O741   2.342       .  S
Mg697       O737   2.279       .  S
Mg697       O708   2.303       .  S
O698       Mg740   2.141       .  S
O698       Mg723   2.145       .  S
O698        C719   1.239       .  S
O699        C730   1.273       .  A
O699       Mg723   2.303       .  S
C700        O702   1.273       .  A
C700        O714   1.276       .  A
C700       C1756   1.495       .  S
O701        C729   1.271       .  A
O701       Mg703   2.296       .  S
O702       Mg734   2.268       .  S
Mg703       O709   2.149       .  S
Mg703       O717   2.289       .  S
Mg703       O705   2.297       .  S
C704        O742   1.274       .  A
C704        O710   1.280       .  A
C704       C2456   1.498       .  S
O705        C712   1.275       .  A
H706        C719   1.079       .  S
C707        O721   1.239       .  S
C707        O722   1.273       .  A
C707        H732   1.080       .  S
O708        C731   1.273       .  A
O709       Mg723   2.150       .  S
O710       Mg740   2.339       .  S
C711        O724   1.272       .  A
C711        O716   1.278       .  A
C711       C2113   1.491       .  S
C712        O739   1.274       .  A
C712       C2708   1.492       .  S
Mg713       O720   2.140       .  S
Mg713       O721   2.138       .  S
Mg713       O714   2.312       .  S
Mg713       O715   2.305       .  S
Mg713       O742   2.277       .  S
O715        C719   1.273       .  A
O716       Mg723   2.322       .  S
O717        C736   1.275       .  A
O718        C738   1.278       .  A
O718       Mg734   2.323       .  S
O720       Mg734   2.145       .  S
O720        C731   1.239       .  S
O721       Mg740   2.129       .  S
O722       Mg734   2.300       .  S
Mg723       O739   2.282       .  S
O724       Mg740   2.262       .  S
H725        C730   1.080       .  S
O726       Mg734   2.137       .  S
O726        C729   1.238       .  S
H727        C729   1.079       .  S
H728        C731   1.080       .  S
O733       Mg740   2.310       .  S
C736        O741   1.281       .  A
C736       C2225   1.500       .  S
O737        C738   1.276       .  A
C738       C2309   1.497       .  S
C743        C832   1.615   1_655  S
C743        C888   1.616       .  S
C743       C1084   1.606   1_655  S
C743       C3464   1.604       .  S
O744       Mg746   2.128       .  S
O744       Mg752   2.134       .  S
O744        C779   1.239       .  S
C745        O758   1.239       .  S
C745        O782   1.273       .  A
C745        H784   1.079       .  S
Mg746       O775   2.140       .  S
Mg746       O790   2.345       .  S
Mg746       O786   2.256       .  S
Mg746       O757   2.308       .  S
O747       Mg789   2.141       .  S
O747       Mg772   2.140       .  S
O747        C768   1.238       .  S
O748        C779   1.272       .  A
O748       Mg772   2.298       .  S
C749        O751   1.273       .  A
C749        O763   1.276       .  A
C749        C825   1.487       .  S
O750        C778   1.273       .  A
O750       Mg752   2.306       .  S
O751       Mg783   2.281       .  S
Mg752       O758   2.139       .  S
Mg752       O766   2.269       .  S
Mg752       O754   2.322       .  S
C753        O791   1.273       .  A
C753        O759   1.279       .  A
C753       C2092   1.494       .  S
O754        C761   1.277       .  A
H755        C768   1.080       .  S
C756        O770   1.239       .  S
C756        O771   1.273       .  A
C756        H781   1.079       .  S
O757        C780   1.274       .  A
O758       Mg772   2.140       .  S
O759       Mg789   2.332       .  S
C760        O773   1.275       .  A
C760        O765   1.275       .  A
C760       C2372   1.501       .  S
C761        O788   1.273       .  A
C761        C797   1.492       .  S
Mg762       O769   2.141       .  S
Mg762       O770   2.145       .  S
Mg762       O763   2.325       .  S
Mg762       O764   2.301       .  S
Mg762       O791   2.265       .  S
O764        C768   1.272       .  A
O765       Mg772   2.303       .  S
O766        C785   1.273       .  A
O767        C787   1.277       .  A
O767       Mg783   2.321       .  S
O769       Mg783   2.139       .  S
O769        C780   1.239       .  S
O770       Mg789   2.144       .  S
O771       Mg783   2.305       .  S
Mg772       O788   2.270       .  S
O773       Mg789   2.283       .  S
H774        C779   1.079       .  S
O775       Mg783   2.148       .  S
O775        C778   1.238       .  S
H776        C778   1.079       .  S
H777        C780   1.080       .  S
O782       Mg789   2.306       .  S
C785        O790   1.280       .  A
C785       C1840   1.508       .  S
O786        C787   1.273       .  A
C787       C2561   1.490       .  S
C792        C804   1.609       .  S
C792        C944   1.623       .  S
C792       C1000   1.616       .  S
C792       C3380   1.625       .  S
C793        C794   1.412       .  A
C793        C798   1.415       .  A
C793        C811   1.451       .  S
C794        C799   1.507       .  S
C794        C795   1.414       .  A
C795        C796   1.413       .  A
C795        C800   1.448       .  S
C796        C797   1.413       .  A
C796        C812   1.452       .  S
C797        C798   1.416       .  A
C798        C801   1.451       .  S
C799        C802   1.398       .  A
C799        C806   1.404       .  A
C800        N817   1.157       .  T
C801        N819   1.157       .  T
C802        C803   1.413       .  A
C802        C807   1.456       .  S
C803        C804   1.452       .  A
C803        C809   1.453       .  S
C804        C805   1.447       .  A
C805        C806   1.425       .  A
C805        C808   1.448       .  S
C806        C810   1.453       .  S
C807        N814   1.157       .  T
C808        N815   1.158       .  T
C809        N813   1.157       .  T
C810        N816   1.157       .  T
C811        N820   1.157       .  T
C812        N818   1.157       .  T
C821        C822   1.416       .  A
C821        C826   1.415       .  A
C821        C839   1.451       .  S
C822        C827   1.515       .  S
C822        C823   1.419       .  A
C823        C824   1.415       .  A
C823        C828   1.448       .  S
C824        C825   1.409       .  A
C824        C840   1.451       .  S
C825        C826   1.411       .  A
C826        C829   1.450       .  S
C827        C830   1.404       .  A
C827        C834   1.406       .  A
C828        N845   1.157       .  T
C829        N847   1.157       .  T
C830        C831   1.424       .  A
C830        C835   1.453       .  S
C831        C832   1.448       .  A
C831        C837   1.447       .  S
C832        C833   1.441       .  A
C833        C834   1.418       .  A
C833        C836   1.445       .  S
C834        C838   1.454       .  S
C835        N842   1.157       .  T
C836        N843   1.157       .  T
C837        N841   1.157   1_455  T
C838        N844   1.157       .  T
C839        N848   1.157       .  T
C840        N846   1.157       .  T
C849        C850   1.410       .  A
C849        C854   1.415       .  A
C849        C867   1.450       .  S
C850        C855   1.508       .  S
C850        C851   1.412       .  A
C851        C852   1.413       .  A
C851        C856   1.452       .  S
C852        C853   1.421       .  A
C852        C868   1.452       .  S
C853        C854   1.422       .  A
C854        C857   1.451       .  S
C855        C858   1.401       .  A
C855        C862   1.398       .  A
C856        N873   1.157       .  T
C857        N875   1.157   1_455  T
C858        C859   1.423       .  A
C858        C863   1.453       .  S
C859        C860   1.449       .  A
C859        C865   1.449       .  S
C860        C861   1.455       .  A
C861        C862   1.414       .  A
C861        C864   1.448       .  S
C862        C866   1.458       .  S
C863        N870   1.157       .  T
C864        N871   1.157       .  T
C865        N869   1.157       .  T
C866        N872   1.157       .  T
C867        N876   1.157       .  T
C868        N874   1.157       .  T
C877        C878   1.415       .  A
C877        C882   1.416       .  A
C877        C895   1.451       .  S
C878        C883   1.513       .  S
C878        C879   1.415       .  A
C879        C880   1.413       .  A
C879        C884   1.451       .  S
C880        C881   1.418       .  A
C880        C896   1.452       .  S
C881        C882   1.417       .  A
C882        C885   1.451       .  S
C883        C886   1.402   1_455  A
C883        C890   1.405       .  A
C884        N901   1.157       .  T
C885        N903   1.157       .  T
C886        C887   1.419       .  A
C886        C891   1.457       .  S
C887        C888   1.449       .  A
C887        C893   1.447       .  S
C888        C889   1.444   1_655  A
C889        C890   1.422       .  A
C889        C892   1.446       .  S
C890        C894   1.454       .  S
C891        N898   1.157       .  T
C892        N899   1.157       .  T
C893        N897   1.157       .  T
C894        N900   1.157       .  T
C895        N904   1.157   1_455  T
C896        N902   1.157       .  T
C905        C906   1.402       .  A
C905        C910   1.424       .  A
C905        C923   1.454       .  S
C906        C911   1.507       .  S
C906        C907   1.400       .  A
C907        C908   1.414       .  A
C907        C912   1.457       .  S
C908        C909   1.452       .  A
C908        C924   1.452       .  S
C909        C910   1.449       .  A
C910        C913   1.446       .  S
C911        C914   1.413       .  A
C911        C918   1.411       .  A
C912        N929   1.157       .  T
C913        N931   1.158       .  T
C914        C915   1.414       .  A
C914        C919   1.450       .  S
C915        C916   1.418       .  A
C915        C921   1.451       .  S
C916        C917   1.420       .  A
C917        C918   1.412       .  A
C917        C920   1.452       .  S
C918        C922   1.451       .  S
C919        N926   1.157       .  T
C920        N927   1.157       .  T
C921        N925   1.158       .  T
C922        N928   1.157       .  T
C923        N932   1.157       .  T
C924        N930   1.157       .  T
C933        C934   1.415       .  A
C933        C938   1.416       .  A
C933        C951   1.450       .  S
C934        C939   1.508       .  S
C934        C935   1.413       .  A
C935        C936   1.412       .  A
C935        C940   1.451       .  S
C936        C937   1.414       .  A
C936        C952   1.451       .  S
C937        C938   1.412       .  A
C938        C941   1.450       .  S
C939        C942   1.398       .  A
C939        C946   1.402       .  A
C940        N957   1.157       .  T
C941        N959   1.157       .  T
C942        C943   1.414       .  A
C942        C947   1.461       .  S
C943        C944   1.458       .  A
C943        C949   1.450       .  S
C944        C945   1.448       .  A
C945        C946   1.424       .  A
C945        C948   1.451       .  S
C946        C950   1.452       .  S
C947        N954   1.157       .  T
C948        N955   1.157       .  T
C949        N953   1.157       .  T
C950        N956   1.157       .  T
C951        N960   1.157       .  T
C952        N958   1.157   1_556  T
C961        C962   1.400       .  A
C961        C966   1.414       .  A
C961        C979   1.457       .  S
C962        C967   1.506       .  S
C962        C963   1.402       .  A
C963        C964   1.422       .  A
C963        C968   1.455       .  S
C964        C965   1.452       .  A
C964        C980   1.450       .  S
C965        C966   1.451       .  A
C966        C969   1.452       .  S
C967        C970   1.412       .  A
C967        C974   1.414       .  A
C968        N985   1.157       .  T
C969        N987   1.157       .  T
C970        C971   1.409       .  A
C970        C975   1.451       .  S
C971        C972   1.419       .  A
C971        C977   1.453       .  S
C972        C973   1.416       .  A
C973        C974   1.415       .  A
C973        C976   1.451       .  S
C974        C978   1.451       .  S
C975        N982   1.157       .  T
C976        N983   1.157       .  T
C977        N981   1.157       .  T
C978        N984   1.157       .  T
C979        N988   1.157       .  T
C980        N986   1.158       .  T
C989        C990   1.420       .  A
C989        C994   1.413       .  A
C989       C1007   1.452       .  S
C990        C995   1.524       .  S
C990        C991   1.417       .  A
C991        C992   1.422       .  A
C991        C996   1.451       .  S
C992        C993   1.425       .  A
C992       C1008   1.450       .  S
C993        C994   1.418       .  A
C994        C997   1.450       .  S
C995        C998   1.413       .  A
C995       C1002   1.402       .  A
C996       N1013   1.157       .  T
C997       N1015   1.157       .  T
C998        C999   1.428       .  A
C998       C1003   1.452       .  S
C999       C1000   1.447       .  A
C999       C1005   1.447       .  S
C1000      C1001   1.450       .  A
C1001      C1002   1.411       .  A
C1001      C1004   1.450       .  S
C1002      C1006   1.454       .  S
C1003      N1010   1.157       .  T
C1004      N1011   1.157       .  T
C1005      N1009   1.158       .  T
C1006      N1012   1.157       .  T
C1007      N1016   1.157       .  T
C1008      N1014   1.158   1_556  T
C1017      C1018   1.410       .  A
C1017      C1022   1.411       .  A
C1017      C1035   1.450       .  S
C1018      C1023   1.499       .  S
C1018      C1019   1.413       .  A
C1019      C1020   1.412       .  A
C1019      C1024   1.451       .  S
C1020      C1021   1.410       .  A
C1020      C1036   1.450       .  S
C1021      C1022   1.414       .  A
C1022      C1025   1.451       .  S
C1023      C1026   1.396       .  A
C1023      C1030   1.398       .  A
C1024      N1041   1.157       .  T
C1025      N1043   1.157   1_554  T
C1026      C1027   1.414       .  A
C1026      C1031   1.459       .  S
C1027      C1028   1.456       .  A
C1027      C1033   1.449       .  S
C1028      C1029   1.449       .  A
C1029      C1030   1.418       .  A
C1029      C1032   1.451       .  S
C1030      C1034   1.453       .  S
C1031      N1038   1.157       .  T
C1032      N1039   1.157       .  T
C1033      N1037   1.157       .  T
C1034      N1040   1.157       .  T
C1035      N1044   1.157       .  T
C1036      N1042   1.157       .  T
C1045      C1046   1.395       .  A
C1045      C1050   1.415       .  A
C1045      C1063   1.458       .  S
C1046      C1051   1.504       .  S
C1046      C1047   1.399       .  A
C1047      C1048   1.421       .  A
C1047      C1052   1.453       .  S
C1048      C1049   1.451       .  A
C1048      C1064   1.450       .  S
C1049      C1050   1.454       .  A
C1050      C1053   1.445       .  S
C1051      C1054   1.413       .  A
C1051      C1058   1.412       .  A
C1052      N1069   1.157       .  T
C1053      N1071   1.156       .  T
C1054      C1055   1.409       .  A
C1054      C1059   1.451       .  S
C1055      C1056   1.412       .  A
C1055      C1061   1.451       .  S
C1056      C1057   1.414       .  A
C1057      C1058   1.417       .  A
C1057      C1060   1.450       .  S
C1058      C1062   1.449       .  S
C1059      N1066   1.157       .  T
C1060      N1067   1.157   1_545  T
C1061      N1065   1.157       .  T
C1062      N1068   1.157       .  T
C1063      N1072   1.157       .  T
C1064      N1070   1.157       .  T
C1073      C1074   1.416       .  A
C1073      C1078   1.414       .  A
C1073      C1091   1.449       .  S
C1074      C1079   1.509       .  S
C1074      C1075   1.415   1_655  A
C1075      C1076   1.412       .  A
C1075      C1080   1.452       .  S
C1076      C1077   1.416       .  A
C1076      C1092   1.451       .  S
C1077      C1078   1.415   1_455  A
C1078      C1081   1.452       .  S
C1079      C1082   1.409       .  A
C1079      C1086   1.404   1_655  A
C1080      N1097   1.157       .  T
C1081      N1099   1.157       .  T
C1082      C1083   1.425       .  A
C1082      C1087   1.452       .  S
C1083      C1084   1.443   1_655  A
C1083      C1089   1.446       .  S
C1084      C1085   1.436       .  A
C1085      C1086   1.405       .  A
C1085      C1088   1.445       .  S
C1086      C1090   1.453       .  S
C1087      N1094   1.157       .  T
C1088      N1095   1.156       .  T
C1089      N1093   1.157       .  T
C1090      N1096   1.157       .  T
C1091      N1100   1.157       .  T
C1092      N1098   1.157       .  T
C1101      C1102   1.412       .  A
C1101      C1106   1.413       .  A
C1101      C1119   1.449       .  S
C1102      C1107   1.501       .  S
C1102      C1103   1.409       .  A
C1103      C1104   1.410       .  A
C1103      C1108   1.452       .  S
C1104      C1105   1.420       .  A
C1104      C1120   1.452       .  S
C1105      C1106   1.417       .  A
C1106      C1109   1.452       .  S
C1107      C1110   1.401       .  A
C1107      C1114   1.398       .  A
C1108      N1125   1.157       .  T
C1109      N1127   1.158       .  T
C1110      C1111   1.421       .  A
C1110      C1115   1.454       .  S
C1111      C1112   1.450       .  A
C1111      C1117   1.450       .  S
C1112      C1113   1.451       .  A
C1113      C1114   1.413       .  A
C1113      C1116   1.452       .  S
C1114      C1118   1.456       .  S
C1115      N1122   1.157       .  T
C1116      N1123   1.157       .  T
C1117      N1121   1.158       .  T
C1118      N1124   1.157       .  T
C1119      N1128   1.157       .  T
C1120      N1126   1.157       .  T
C1129      C1130   1.414       .  A
C1129      C1134   1.416       .  A
C1129      C1147   1.450       .  S
C1130      C1135   1.507       .  S
C1130      C1131   1.413   1_545  A
C1131      C1132   1.410       .  A
C1131      C1136   1.449       .  S
C1132      C1133   1.413   1_565  A
C1132      C1148   1.452       .  S
C1133      C1134   1.416       .  A
C1134      C1137   1.451       .  S
C1135      C1138   1.400       .  A
C1135      C1142   1.401       .  A
C1136      N1153   1.157       .  T
C1137      N1155   1.158       .  T
C1138      C1139   1.417       .  A
C1138      C1143   1.455       .  S
C1139      C1140   1.451       .  A
C1139      C1145   1.452       .  S
C1140      C1141   1.452       .  A
C1141      C1142   1.423       .  A
C1141      C1144   1.449       .  S
C1142      C1146   1.455       .  S
C1143      N1150   1.157       .  T
C1144      N1151   1.158       .  T
C1145      N1149   1.157       .  T
C1146      N1152   1.157       .  T
C1147      N1156   1.157       .  T
C1148      N1154   1.157       .  T
C1157      C1158   1.397   1_545  A
C1157      C1162   1.411       .  A
C1157      C1175   1.459       .  S
C1158      C1163   1.501       .  S
C1158      C1159   1.401       .  A
C1159      C1160   1.421       .  A
C1159      C1164   1.452       .  S
C1160      C1161   1.449       .  A
C1160      C1176   1.451       .  S
C1161      C1162   1.454   1_565  A
C1162      C1165   1.450       .  S
C1163      C1166   1.413       .  A
C1163      C1170   1.412       .  A
C1164      N1181   1.157       .  T
C1165      N1183   1.157       .  T
C1166      C1167   1.411       .  A
C1166      C1171   1.451       .  S
C1167      C1168   1.411       .  A
C1167      C1173   1.451       .  S
C1168      C1169   1.413       .  A
C1169      C1170   1.414       .  A
C1169      C1172   1.450   1_565  S
C1170      C1174   1.449   1_565  S
C1171      N1178   1.157       .  T
C1172      N1179   1.157       .  T
C1173      N1177   1.157       .  T
C1174      N1180   1.157       .  T
C1175      N1184   1.157       .  T
C1176      N1182   1.157       .  T
C1185      C1186   1.395       .  A
C1185      C1190   1.413       .  A
C1185      C1203   1.454       .  S
C1186      C1191   1.490       .  S
C1186      C1187   1.395   1_556  A
C1187      C1188   1.412       .  A
C1187      C1192   1.459       .  S
C1188      C1189   1.454   1_554  A
C1188      C1204   1.448       .  S
C1189      C1190   1.451       .  A
C1190      C1193   1.451       .  S
C1191      C1194   1.408       .  A
C1191      C1198   1.406       .  A
C1192      N1209   1.157       .  T
C1193      N1211   1.157       .  T
C1194      C1195   1.406       .  A
C1194      C1199   1.452       .  S
C1195      C1196   1.419       .  A
C1195      C1201   1.452       .  S
C1196      C1197   1.422   1_556  A
C1197      C1198   1.409   1_554  A
C1197      C1200   1.452       .  S
C1198      C1202   1.451   1_556  S
C1199      N1206   1.157       .  T
C1200      N1207   1.158       .  T
C1201      N1205   1.157       .  T
C1202      N1208   1.157       .  T
C1203      N1212   1.157       .  T
C1204      N1210   1.157       .  T
C1213      C1214   1.413       .  A
C1213      C1218   1.413       .  A
C1213      C1231   1.449       .  S
C1214      C1219   1.505       .  S
C1214      C1215   1.412   1_556  A
C1215      C1216   1.412       .  A
C1215      C1220   1.451       .  S
C1216      C1217   1.416   1_554  A
C1216      C1232   1.451       .  S
C1217      C1218   1.414       .  A
C1218      C1221   1.451       .  S
C1219      C1222   1.401       .  A
C1219      C1226   1.401       .  A
C1220      N1237   1.157       .  T
C1221      N1239   1.157       .  T
C1222      C1223   1.416       .  A
C1222      C1227   1.454   1_556  S
C1223      C1224   1.449       .  A
C1223      C1229   1.451       .  S
C1224      C1225   1.452       .  A
C1225      C1226   1.419       .  A
C1225      C1228   1.451   1_556  S
C1226      C1230   1.455       .  S
C1227      N1234   1.157       .  T
C1228      N1235   1.158       .  T
C1229      N1233   1.157       .  T
C1230      N1236   1.157       .  T
C1231      N1240   1.157       .  T
C1232      N1238   1.157       .  T
C1241      C1242   1.397       .  A
C1241      C1246   1.414       .  A
C1241      C1259   1.461       .  S
C1242      C1247   1.507       .  S
C1242      C1243   1.401       .  A
C1243      C1244   1.424       .  A
C1243      C1248   1.453       .  S
C1244      C1245   1.449       .  A
C1244      C1260   1.450       .  S
C1245      C1246   1.457       .  A
C1246      C1249   1.448       .  S
C1247      C1250   1.414       .  A
C1247      C1254   1.413       .  A
C1248      N1265   1.157       .  T
C1249      N1267   1.156       .  T
C1250      C1251   1.414       .  A
C1250      C1255   1.450       .  S
C1251      C1252   1.413       .  A
C1251      C1257   1.450       .  S
C1252      C1253   1.413       .  A
C1253      C1254   1.412       .  A
C1253      C1256   1.451       .  S
C1254      C1258   1.451       .  S
C1255      N1262   1.157       .  T
C1256      N1263   1.157       .  T
C1257      N1261   1.157       .  T
C1258      N1264   1.157       .  T
C1259      N1268   1.157       .  T
C1260      N1266   1.157       .  T
C1269      C1270   1.401       .  A
C1269      C1274   1.424       .  A
C1269      C1287   1.454       .  S
C1270      C1275   1.508       .  S
C1270      C1271   1.400       .  A
C1271      C1272   1.416       .  A
C1271      C1276   1.456       .  S
C1272      C1273   1.452       .  A
C1272      C1288   1.452       .  S
C1273      C1274   1.451       .  A
C1274      C1277   1.448       .  S
C1275      C1278   1.410       .  A
C1275      C1282   1.411       .  A
C1276      N1293   1.157       .  T
C1277      N1295   1.158       .  T
C1278      C1279   1.412       .  A
C1278      C1283   1.450       .  S
C1279      C1280   1.422       .  A
C1279      C1285   1.453       .  S
C1280      C1281   1.421       .  A
C1281      C1282   1.416       .  A
C1281      C1284   1.450       .  S
C1282      C1286   1.451       .  S
C1283      N1290   1.157       .  T
C1284      N1291   1.158       .  T
C1285      N1289   1.158       .  T
C1286      N1292   1.157       .  T
C1287      N1296   1.157       .  T
C1288      N1294   1.157       .  T
C1297      C1298   1.396       .  A
C1297      C1302   1.412       .  A
C1297      C1315   1.457       .  S
C1298      C1303   1.500       .  S
C1298      C1299   1.400       .  A
C1299      C1300   1.422       .  A
C1299      C1304   1.454       .  S
C1300      C1301   1.451       .  A
C1300      C1316   1.449       .  S
C1301      C1302   1.451       .  A
C1302      C1305   1.451       .  S
C1303      C1306   1.411       .  A
C1303      C1310   1.408       .  A
C1304      N1321   1.157       .  T
C1305      N1323   1.157       .  T
C1306      C1307   1.412       .  A
C1306      C1311   1.449       .  S
C1307      C1308   1.417       .  A
C1307      C1313   1.451       .  S
C1308      C1309   1.421       .  A
C1309      C1310   1.410       .  A
C1309      C1312   1.452       .  S
C1310      C1314   1.452       .  S
C1311      N1318   1.157       .  T
C1312      N1319   1.157       .  T
C1313      N1317   1.158       .  T
C1314      N1320   1.157       .  T
C1315      N1324   1.157       .  T
C1316      N1322   1.158       .  T
C1325      C1326   1.417       .  A
C1325      C1330   1.416       .  A
C1325      C1343   1.449       .  S
C1326      C1331   1.510       .  S
C1326      C1327   1.412       .  A
C1327      C1328   1.412       .  A
C1327      C1332   1.451       .  S
C1328      C1329   1.418       .  A
C1328      C1344   1.452       .  S
C1329      C1330   1.414       .  A
C1330      C1333   1.451       .  S
C1331      C1334   1.405       .  A
C1331      C1338   1.399       .  A
C1332      N1349   1.157       .  T
C1333      N1351   1.157       .  T
C1334      C1335   1.424       .  A
C1334      C1339   1.454       .  S
C1335      C1336   1.448       .  A
C1335      C1341   1.449       .  S
C1336      C1337   1.452       .  A
C1337      C1338   1.415       .  A
C1337      C1340   1.451       .  S
C1338      C1342   1.456       .  S
C1339      N1346   1.157       .  T
C1340      N1347   1.157       .  T
C1341      N1345   1.158   1_545  T
C1342      N1348   1.157       .  T
C1343      N1352   1.157       .  T
C1344      N1350   1.157       .  T
C1353      C1354   1.404       .  A
C1353      C1358   1.423       .  A
C1353      C1371   1.454       .  S
C1354      C1359   1.511       .  S
C1354      C1355   1.402       .  A
C1355      C1356   1.416       .  A
C1355      C1360   1.457       .  S
C1356      C1357   1.450       .  A
C1356      C1372   1.451       .  S
C1357      C1358   1.450       .  A
C1358      C1361   1.450       .  S
C1359      C1362   1.414       .  A
C1359      C1366   1.413       .  A
C1360      N1377   1.157       .  T
C1361      N1379   1.158   1_554  T
C1362      C1363   1.415       .  A
C1362      C1367   1.451       .  S
C1363      C1364   1.419       .  A
C1363      C1369   1.451       .  S
C1364      C1365   1.419       .  A
C1365      C1366   1.413       .  A
C1365      C1368   1.452       .  S
C1366      C1370   1.451       .  S
C1367      N1374   1.157       .  T
C1368      N1375   1.157       .  T
C1369      N1373   1.158       .  T
C1370      N1376   1.157       .  T
C1371      N1380   1.157       .  T
C1372      N1378   1.157       .  T
C1381      C1382   1.404       .  A
C1381      C1386   1.424       .  A
C1381      C1399   1.453       .  S
C1382      C1387   1.509       .  S
C1382      C1383   1.403   1_655  A
C1383      C1384   1.415       .  A
C1383      C1388   1.456       .  S
C1384      C1385   1.444   1_455  A
C1384      C1400   1.444       .  S
C1385      C1386   1.446       .  A
C1386      C1389   1.448       .  S
C1387      C1390   1.414   1_655  A
C1387      C1394   1.417       .  A
C1388      N1405   1.157       .  T
C1389      N1407   1.157       .  T
C1390      C1391   1.411   1_455  A
C1390      C1395   1.451       .  S
C1391      C1392   1.412       .  A
C1391      C1397   1.451   1_655  S
C1392      C1393   1.410       .  A
C1393      C1394   1.415       .  A
C1393      C1396   1.451       .  S
C1394      C1398   1.448       .  S
C1395      N1402   1.157       .  T
C1396      N1403   1.157       .  T
C1397      N1401   1.157       .  T
C1398      N1404   1.157       .  T
C1399      N1408   1.157       .  T
C1400      N1406   1.156       .  T
C1409      C1410   1.416       .  A
C1409      C1414   1.415       .  A
C1409      C1427   1.449       .  S
C1410      C1415   1.511       .  S
C1410      C1411   1.414   1_455  A
C1411      C1412   1.413       .  A
C1411      C1416   1.451       .  S
C1412      C1413   1.414   1_655  A
C1412      C1428   1.451       .  S
C1413      C1414   1.412       .  A
C1414      C1417   1.451       .  S
C1415      C1418   1.403   1_455  A
C1415      C1422   1.402       .  A
C1416      N1433   1.157       .  T
C1417      N1435   1.157       .  T
C1418      C1419   1.416       .  A
C1418      C1423   1.456       .  S
C1419      C1420   1.445       .  A
C1419      C1425   1.442       .  S
C1420      C1421   1.448   1_655  A
C1421      C1422   1.424       .  A
C1421      C1424   1.446       .  S
C1422      C1426   1.453       .  S
C1423      N1430   1.157       .  T
C1424      N1431   1.157       .  T
C1425      N1429   1.156       .  T
C1426      N1432   1.157       .  T
C1427      N1436   1.157       .  T
C1428      N1434   1.157       .  T
C1437      C1438   1.417       .  A
C1437      C1442   1.410       .  A
C1437      C1455   1.452       .  S
C1438      C1443   1.504       .  S
C1438      C1439   1.415       .  A
C1439      C1440   1.411       .  A
C1439      C1444   1.451       .  S
C1440      C1441   1.413       .  A
C1440      C1456   1.451       .  S
C1441      C1442   1.411       .  A
C1442      C1445   1.452       .  S
C1443      C1446   1.405       .  A
C1443      C1450   1.402       .  A
C1444      N1461   1.157       .  T
C1445      N1463   1.157       .  T
C1446      C1447   1.416       .  A
C1446      C1451   1.454       .  S
C1447      C1448   1.441       .  A
C1447      C1453   1.445       .  S
C1448      C1449   1.445       .  A
C1449      C1450   1.415       .  A
C1449      C1452   1.448       .  S
C1450      C1454   1.456       .  S
C1451      N1458   1.157       .  T
C1452      N1459   1.157       .  T
C1453      N1457   1.158   1_455  T
C1454      N1460   1.157       .  T
C1455      N1464   1.158       .  T
C1456      N1462   1.157       .  T
C1465      C1466   1.393       .  A
C1465      C1470   1.410       .  A
C1465      C1483   1.459       .  S
C1466      C1471   1.499       .  S
C1466      C1467   1.399   1_565  A
C1467      C1468   1.420       .  A
C1467      C1472   1.452       .  S
C1468      C1469   1.449   1_545  A
C1468      C1484   1.450       .  S
C1469      C1470   1.454       .  A
C1470      C1473   1.447       .  S
C1471      C1474   1.409       .  A
C1471      C1478   1.407       .  A
C1472      N1489   1.157       .  T
C1473      N1491   1.157       .  T
C1474      C1475   1.411       .  A
C1474      C1479   1.453   1_565  S
C1475      C1476   1.425       .  A
C1475      C1481   1.452       .  S
C1476      C1477   1.423       .  A
C1477      C1478   1.414       .  A
C1477      C1480   1.450       .  S
C1478      C1482   1.450       .  S
C1479      N1486   1.157       .  T
C1480      N1487   1.157   1_655  T
C1481      N1485   1.158   1_565  T
C1482      N1488   1.157       .  T
C1483      N1492   1.157       .  T
C1484      N1490   1.157       .  T
C1493      C1494   1.399   1_565  A
C1493      C1498   1.413       .  A
C1493      C1511   1.456       .  S
C1494      C1499   1.504       .  S
C1494      C1495   1.403       .  A
C1495      C1496   1.420       .  A
C1495      C1500   1.454       .  S
C1496      C1497   1.449   1_545  A
C1496      C1512   1.449   1_545  S
C1497      C1498   1.450       .  A
C1498      C1501   1.450       .  S
C1499      C1502   1.413   1_545  A
C1499      C1506   1.416       .  A
C1500      N1517   1.157       .  T
C1501      N1519   1.157       .  T
C1502      C1503   1.411       .  A
C1502      C1507   1.451       .  S
C1503      C1504   1.415   1_565  A
C1503      C1509   1.451       .  S
C1504      C1505   1.411       .  A
C1505      C1506   1.411       .  A
C1505      C1508   1.452       .  S
C1506      C1510   1.449       .  S
C1507      N1514   1.157       .  T
C1508      N1515   1.157       .  T
C1509      N1513   1.157       .  T
C1510      N1516   1.157       .  T
C1511      N1520   1.157       .  T
C1512      N1518   1.158       .  T
C1521      C1522   1.398       .  A
C1521      C1526   1.415       .  A
C1521      C1539   1.457       .  S
C1522      C1527   1.510       .  S
C1522      C1523   1.402       .  A
C1523      C1524   1.423       .  A
C1523      C1528   1.452       .  S
C1524      C1525   1.449       .  A
C1524      C1540   1.449       .  S
C1525      C1526   1.454       .  A
C1526      C1529   1.447       .  S
C1527      C1530   1.414       .  A
C1527      C1534   1.410       .  A
C1528      N1545   1.157       .  T
C1529      N1547   1.156       .  T
C1530      C1531   1.415       .  A
C1530      C1535   1.451       .  S
C1531      C1532   1.417       .  A
C1531      C1537   1.451       .  S
C1532      C1533   1.421       .  A
C1533      C1534   1.417       .  A
C1533      C1536   1.450       .  S
C1534      C1538   1.450       .  S
C1535      N1542   1.157       .  T
C1536      N1543   1.157       .  T
C1537      N1541   1.157       .  T
C1538      N1544   1.157       .  T
C1539      N1548   1.157       .  T
C1540      N1546   1.157   1_545  T
C1549      C1550   1.400       .  A
C1549      C1554   1.410       .  A
C1549      C1567   1.455       .  S
C1550      C1555   1.498       .  S
C1550      C1551   1.405       .  A
C1551      C1552   1.418       .  A
C1551      C1556   1.454       .  S
C1552      C1553   1.442       .  A
C1552      C1568   1.445       .  S
C1553      C1554   1.444       .  A
C1554      C1557   1.448       .  S
C1555      C1558   1.413       .  A
C1555      C1562   1.415       .  A
C1556      N1573   1.157       .  T
C1557      N1575   1.156       .  T
C1558      C1559   1.408       .  A
C1558      C1563   1.452       .  S
C1559      C1560   1.415       .  A
C1559      C1565   1.452       .  S
C1560      C1561   1.411       .  A
C1561      C1562   1.408       .  A
C1561      C1564   1.452       .  S
C1562      C1566   1.450       .  S
C1563      N1570   1.157       .  T
C1564      N1571   1.157       .  T
C1565      N1569   1.157       .  T
C1566      N1572   1.157       .  T
C1567      N1576   1.157       .  T
C1568      N1574   1.157   1_655  T
C1577      C1578   1.399       .  A
C1577      C1582   1.420       .  A
C1577      C1595   1.453       .  S
C1578      C1583   1.504       .  S
C1578      C1579   1.396       .  A
C1579      C1580   1.415       .  A
C1579      C1584   1.457       .  S
C1580      C1581   1.455       .  A
C1580      C1596   1.448       .  S
C1581      C1582   1.452       .  A
C1582      C1585   1.450       .  S
C1583      C1586   1.410       .  A
C1583      C1590   1.408       .  A
C1584      N1601   1.157       .  T
C1585      N1603   1.157       .  T
C1586      C1587   1.413       .  A
C1586      C1591   1.452       .  S
C1587      C1588   1.422       .  A
C1587      C1593   1.451       .  S
C1588      C1589   1.423       .  A
C1589      C1590   1.415       .  A
C1589      C1592   1.451       .  S
C1590      C1594   1.451       .  S
C1591      N1598   1.157       .  T
C1592      N1599   1.157       .  T
C1593      N1597   1.158       .  T
C1594      N1600   1.157       .  T
C1595      N1604   1.157       .  T
C1596      N1602   1.157       .  T
C1605      C1606   1.412       .  A
C1605      C1610   1.412       .  A
C1605      C1623   1.449       .  S
C1606      C1611   1.502       .  S
C1606      C1607   1.410   1_455  A
C1607      C1608   1.411       .  A
C1607      C1612   1.451       .  S
C1608      C1609   1.418   1_655  A
C1608      C1624   1.451       .  S
C1609      C1610   1.415       .  A
C1610      C1613   1.451       .  S
C1611      C1614   1.400       .  A
C1611      C1618   1.399   1_455  A
C1612      N1629   1.157       .  T
C1613      N1631   1.157       .  T
C1614      C1615   1.421   1_455  A
C1614      C1619   1.455       .  S
C1615      C1616   1.452       .  A
C1615      C1621   1.449       .  S
C1616      C1617   1.452       .  A
C1617      C1618   1.414       .  A
C1617      C1620   1.452       .  S
C1618      C1622   1.456       .  S
C1619      N1626   1.157       .  T
C1620      N1627   1.157       .  T
C1621      N1625   1.158       .  T
C1622      N1628   1.157       .  T
C1623      N1632   1.157       .  T
C1624      N1630   1.157       .  T
C1633      C1634   1.396       .  A
C1633      C1638   1.413       .  A
C1633      C1651   1.459       .  S
C1634      C1639   1.501       .  S
C1634      C1635   1.399   1_655  A
C1635      C1636   1.419       .  A
C1635      C1640   1.453       .  S
C1636      C1637   1.448   1_455  A
C1636      C1652   1.450       .  S
C1637      C1638   1.455       .  A
C1638      C1641   1.449       .  S
C1639      C1642   1.410       .  A
C1639      C1646   1.409       .  A
C1640      N1657   1.157       .  T
C1641      N1659   1.157       .  T
C1642      C1643   1.409       .  A
C1642      C1647   1.453   1_655  S
C1643      C1644   1.422       .  A
C1643      C1649   1.452       .  S
C1644      C1645   1.421       .  A
C1645      C1646   1.415       .  A
C1645      C1648   1.450       .  S
C1646      C1650   1.450       .  S
C1647      N1654   1.157       .  T
C1648      N1655   1.157   1_556  T
C1649      N1653   1.158       .  T
C1650      N1656   1.157       .  T
C1651      N1660   1.157       .  T
C1652      N1658   1.157       .  T
C1661      C1662   1.411       .  A
C1661      C1666   1.414       .  A
C1661      C1679   1.450       .  S
C1662      C1667   1.501       .  S
C1662      C1663   1.412       .  A
C1663      C1664   1.411       .  A
C1663      C1668   1.451       .  S
C1664      C1665   1.413       .  A
C1664      C1680   1.451       .  S
C1665      C1666   1.414       .  A
C1666      C1669   1.450       .  S
C1667      C1670   1.399       .  A
C1667      C1674   1.395       .  A
C1668      N1685   1.157       .  T
C1669      N1687   1.157       .  T
C1670      C1671   1.422       .  A
C1670      C1675   1.453       .  S
C1671      C1672   1.451       .  A
C1671      C1677   1.449       .  S
C1672      C1673   1.454       .  A
C1673      C1674   1.413       .  A
C1673      C1676   1.446       .  S
C1674      C1678   1.459       .  S
C1675      N1682   1.157       .  T
C1676      N1683   1.156       .  T
C1677      N1681   1.157   1_455  T
C1678      N1684   1.157       .  T
C1679      N1688   1.157       .  T
C1680      N1686   1.157       .  T
C1689      C1690   1.414       .  A
C1689      C1694   1.412       .  A
C1689      C1707   1.451       .  S
C1690      C1695   1.509       .  S
C1690      C1691   1.411       .  A
C1691      C1692   1.416       .  A
C1691      C1696   1.451       .  S
C1692      C1693   1.423       .  A
C1692      C1708   1.451       .  S
C1693      C1694   1.418       .  A
C1694      C1697   1.452       .  S
C1695      C1698   1.401       .  A
C1695      C1702   1.400       .  A
C1696      N1713   1.157       .  T
C1697      N1715   1.157       .  T
C1698      C1699   1.420       .  A
C1698      C1703   1.453       .  S
C1699      C1700   1.451       .  A
C1699      C1705   1.451       .  S
C1700      C1701   1.451       .  A
C1701      C1702   1.415       .  A
C1701      C1704   1.445       .  S
C1702      C1706   1.458       .  S
C1703      N1710   1.157       .  T
C1704      N1711   1.157       .  T
C1705      N1709   1.157   1_556  T
C1706      N1712   1.157       .  T
C1707      N1716   1.157       .  T
C1708      N1714   1.158       .  T
C1717      C1718   1.413       .  A
C1717      C1722   1.416       .  A
C1717      C1735   1.450       .  S
C1718      C1723   1.506       .  S
C1718      C1719   1.409       .  A
C1719      C1720   1.414       .  A
C1719      C1724   1.450       .  S
C1720      C1721   1.419       .  A
C1720      C1736   1.451       .  S
C1721      C1722   1.415       .  A
C1722      C1725   1.450       .  S
C1723      C1726   1.397       .  A
C1723      C1730   1.402       .  A
C1724      N1741   1.157       .  T
C1725      N1743   1.157       .  T
C1726      C1727   1.411       .  A
C1726      C1731   1.457       .  S
C1727      C1728   1.452       .  A
C1727      C1733   1.447       .  S
C1728      C1729   1.448       .  A
C1729      C1730   1.422       .  A
C1729      C1732   1.450       .  S
C1730      C1734   1.451       .  S
C1731      N1738   1.157       .  T
C1732      N1739   1.157       .  T
C1733      N1737   1.157       .  T
C1734      N1740   1.157       .  T
C1735      N1744   1.157       .  T
C1736      N1742   1.157       .  T
C1745      C1746   1.401       .  A
C1745      C1750   1.421       .  A
C1745      C1763   1.454       .  S
C1746      C1751   1.503       .  S
C1746      C1747   1.400       .  A
C1747      C1748   1.413       .  A
C1747      C1752   1.457       .  S
C1748      C1749   1.450       .  A
C1748      C1764   1.452       .  S
C1749      C1750   1.450       .  A
C1750      C1753   1.451       .  S
C1751      C1754   1.411       .  A
C1751      C1758   1.412       .  A
C1752      N1769   1.157       .  T
C1753      N1771   1.158       .  T
C1754      C1755   1.412       .  A
C1754      C1759   1.451       .  S
C1755      C1756   1.419       .  A
C1755      C1761   1.451       .  S
C1756      C1757   1.417       .  A
C1757      C1758   1.412       .  A
C1757      C1760   1.452       .  S
C1758      C1762   1.450       .  S
C1759      N1766   1.157       .  T
C1760      N1767   1.157       .  T
C1761      N1765   1.157       .  T
C1762      N1768   1.157       .  T
C1763      N1772   1.157       .  T
C1764      N1770   1.157       .  T
C1773      C1774   1.402       .  A
C1773      C1778   1.418       .  A
C1773      C1791   1.455       .  S
C1774      C1779   1.510       .  S
C1774      C1775   1.400       .  A
C1775      C1776   1.419       .  A
C1775      C1780   1.460       .  S
C1776      C1777   1.456       .  A
C1776      C1792   1.446       .  S
C1777      C1778   1.449       .  A
C1778      C1781   1.451       .  S
C1779      C1782   1.411       .  A
C1779      C1786   1.413       .  A
C1780      N1797   1.158       .  T
C1781      N1799   1.157       .  T
C1782      C1783   1.412       .  A
C1782      C1787   1.453       .  S
C1783      C1784   1.426       .  A
C1783      C1789   1.451       .  S
C1784      C1785   1.422       .  A
C1785      C1786   1.413       .  A
C1785      C1788   1.449       .  S
C1786      C1790   1.452       .  S
C1787      N1794   1.158       .  T
C1788      N1795   1.157       .  T
C1789      N1793   1.158       .  T
C1790      N1796   1.157       .  T
C1791      N1800   1.157       .  T
C1792      N1798   1.157       .  T
C1801      C1802   1.398       .  A
C1801      C1806   1.419       .  A
C1801      C1819   1.455       .  S
C1802      C1807   1.497       .  S
C1802      C1803   1.398       .  A
C1803      C1804   1.412       .  A
C1803      C1808   1.458       .  S
C1804      C1805   1.452       .  A
C1804      C1820   1.451       .  S
C1805      C1806   1.452       .  A
C1806      C1809   1.449       .  S
C1807      C1810   1.412       .  A
C1807      C1814   1.410       .  A
C1808      N1825   1.157       .  T
C1809      N1827   1.158       .  T
C1810      C1811   1.411       .  A
C1810      C1815   1.451       .  S
C1811      C1812   1.414       .  A
C1811      C1817   1.451       .  S
C1812      C1813   1.414       .  A
C1813      C1814   1.408       .  A
C1813      C1816   1.452       .  S
C1814      C1818   1.450       .  S
C1815      N1822   1.157       .  T
C1816      N1823   1.157       .  T
C1817      N1821   1.157       .  T
C1818      N1824   1.157       .  T
C1819      N1828   1.157       .  T
C1820      N1826   1.157       .  T
C1829      C1830   1.398       .  A
C1829      C1834   1.420       .  A
C1829      C1847   1.453       .  S
C1830      C1835   1.507       .  S
C1830      C1831   1.396       .  A
C1831      C1832   1.418       .  A
C1831      C1836   1.458       .  S
C1832      C1833   1.456       .  A
C1832      C1848   1.447       .  S
C1833      C1834   1.452       .  A
C1834      C1837   1.451       .  S
C1835      C1838   1.411       .  A
C1835      C1842   1.408       .  A
C1836      N1853   1.157       .  T
C1837      N1855   1.157   1_556  T
C1838      C1839   1.414       .  A
C1838      C1843   1.451       .  S
C1839      C1840   1.420       .  A
C1839      C1845   1.451       .  S
C1840      C1841   1.425       .  A
C1841      C1842   1.416       .  A
C1841      C1844   1.451       .  S
C1842      C1846   1.451       .  S
C1843      N1850   1.157       .  T
C1844      N1851   1.158       .  T
C1845      N1849   1.157       .  T
C1846      N1852   1.157       .  T
C1847      N1856   1.157       .  T
C1848      N1854   1.157       .  T
C1857      C1858   1.414       .  A
C1857      C1862   1.414       .  A
C1857      C1875   1.450       .  S
C1858      C1863   1.506       .  S
C1858      C1859   1.413       .  A
C1859      C1860   1.411       .  A
C1859      C1864   1.450   1_554  S
C1860      C1861   1.414       .  A
C1860      C1876   1.452   1_554  S
C1861      C1862   1.414       .  A
C1862      C1865   1.451       .  S
C1863      C1866   1.401       .  A
C1863      C1870   1.400       .  A
C1864      N1881   1.157       .  T
C1865      N1883   1.157       .  T
C1866      C1867   1.422       .  A
C1866      C1871   1.455       .  S
C1867      C1868   1.452       .  A
C1867      C1873   1.449       .  S
C1868      C1869   1.451       .  A
C1869      C1870   1.416       .  A
C1869      C1872   1.452       .  S
C1870      C1874   1.456       .  S
C1871      N1878   1.157       .  T
C1872      N1879   1.157       .  T
C1873      N1877   1.158       .  T
C1874      N1880   1.157       .  T
C1875      N1884   1.157       .  T
C1876      N1882   1.157       .  T
C1885      C1886   1.396   1_554  A
C1885      C1890   1.414       .  A
C1885      C1903   1.459       .  S
C1886      C1891   1.500       .  S
C1886      C1887   1.399       .  A
C1887      C1888   1.419       .  A
C1887      C1892   1.453       .  S
C1888      C1889   1.450   1_556  A
C1888      C1904   1.452       .  S
C1889      C1890   1.454       .  A
C1890      C1893   1.447       .  S
C1891      C1894   1.410       .  A
C1891      C1898   1.412       .  A
C1892      N1909   1.157       .  T
C1893      N1911   1.157       .  T
C1894      C1895   1.411       .  A
C1894      C1899   1.450       .  S
C1895      C1896   1.416       .  A
C1895      C1901   1.451       .  S
C1896      C1897   1.413       .  A
C1897      C1898   1.412       .  A
C1897      C1900   1.450       .  S
C1898      C1902   1.451       .  S
C1899      N1906   1.157   1_556  T
C1900      N1907   1.157       .  T
C1901      N1905   1.157   1_565  T
C1902      N1908   1.157       .  T
C1903      N1912   1.157       .  T
C1904      N1910   1.157       .  T
C1913      C1914   1.411       .  A
C1913      C1918   1.410       .  A
C1913      C1931   1.450       .  S
C1914      C1919   1.501       .  S
C1914      C1915   1.411       .  A
C1915      C1916   1.412       .  A
C1915      C1920   1.451       .  S
C1916      C1917   1.417       .  A
C1916      C1932   1.452       .  S
C1917      C1918   1.415       .  A
C1918      C1921   1.452       .  S
C1919      C1922   1.397       .  A
C1919      C1926   1.400       .  A
C1920      N1937   1.157       .  T
C1921      N1939   1.157       .  T
C1922      C1923   1.414       .  A
C1922      C1927   1.456       .  S
C1923      C1924   1.452       .  A
C1923      C1929   1.452       .  S
C1924      C1925   1.451       .  A
C1925      C1926   1.421       .  A
C1925      C1928   1.450       .  S
C1926      C1930   1.455       .  S
C1927      N1934   1.157       .  T
C1928      N1935   1.158       .  T
C1929      N1933   1.157       .  T
C1930      N1936   1.157       .  T
C1931      N1940   1.157       .  T
C1932      N1938   1.158       .  T
C1941      C1942   1.413       .  A
C1941      C1946   1.416       .  A
C1941      C1959   1.451       .  S
C1942      C1947   1.512       .  S
C1942      C1943   1.410       .  A
C1943      C1944   1.416       .  A
C1943      C1948   1.450       .  S
C1944      C1945   1.422       .  A
C1944      C1960   1.451       .  S
C1945      C1946   1.420       .  A
C1946      C1949   1.451       .  S
C1947      C1950   1.396       .  A
C1947      C1954   1.400       .  A
C1948      N1965   1.157       .  T
C1949      N1967   1.158       .  T
C1950      C1951   1.419       .  A
C1950      C1955   1.458       .  S
C1951      C1952   1.456       .  A
C1951      C1957   1.444       .  S
C1952      C1953   1.452       .  A
C1953      C1954   1.424       .  A
C1953      C1956   1.449       .  S
C1954      C1958   1.453       .  S
C1955      N1962   1.157       .  T
C1956      N1963   1.157       .  T
C1957      N1961   1.156       .  T
C1958      N1964   1.157       .  T
C1959      N1968   1.157       .  T
C1960      N1966   1.157       .  T
C1969      C1970   1.402       .  A
C1969      C1974   1.426       .  A
C1969      C1987   1.454       .  S
C1970      C1975   1.506       .  S
C1970      C1971   1.397       .  A
C1971      C1972   1.413       .  A
C1971      C1976   1.457       .  S
C1972      C1973   1.452       .  A
C1972      C1988   1.451       .  S
C1973      C1974   1.451       .  A
C1974      C1977   1.448       .  S
C1975      C1978   1.412       .  A
C1975      C1982   1.413       .  A
C1976      N1993   1.157       .  T
C1977      N1995   1.158       .  T
C1978      C1979   1.412       .  A
C1978      C1983   1.449       .  S
C1979      C1980   1.415       .  A
C1979      C1985   1.452       .  S
C1980      C1981   1.415       .  A
C1981      C1982   1.415       .  A
C1981      C1984   1.450       .  S
C1982      C1986   1.450       .  S
C1983      N1990   1.157       .  T
C1984      N1991   1.157       .  T
C1985      N1989   1.157       .  T
C1986      N1992   1.157       .  T
C1987      N1996   1.157       .  T
C1988      N1994   1.157       .  T
C1997      C1998   1.412       .  A
C1997      C2002   1.413       .  A
C1997      C2015   1.450       .  S
C1998      C2003   1.507       .  S
C1998      C1999   1.412       .  A
C1999      C2000   1.414       .  A
C1999      C2004   1.451       .  S
C2000      C2001   1.417       .  A
C2000      C2016   1.451       .  S
C2001      C2002   1.417       .  A
C2002      C2005   1.452       .  S
C2003      C2006   1.401       .  A
C2003      C2010   1.399       .  A
C2004      N2021   1.157       .  T
C2005      N2023   1.158       .  T
C2006      C2007   1.422       .  A
C2006      C2011   1.455       .  S
C2007      C2008   1.452       .  A
C2007      C2013   1.450       .  S
C2008      C2009   1.450       .  A
C2009      C2010   1.417       .  A
C2009      C2012   1.451       .  S
C2010      C2014   1.456       .  S
C2011      N2018   1.157       .  T
C2012      N2019   1.157       .  T
C2013      N2017   1.158   1_455  T
C2014      N2020   1.157       .  T
C2015      N2024   1.157       .  T
C2016      N2022   1.157       .  T
C2025      C2026   1.398       .  A
C2025      C2030   1.419       .  A
C2025      C2043   1.453       .  S
C2026      C2031   1.505       .  S
C2026      C2027   1.398   1_655  A
C2027      C2028   1.419       .  A
C2027      C2032   1.458       .  S
C2028      C2029   1.455       .  A
C2028      C2044   1.448       .  S
C2029      C2030   1.451   1_455  A
C2030      C2033   1.451       .  S
C2031      C2034   1.412       .  A
C2031      C2038   1.412       .  A
C2032      N2049   1.157       .  T
C2033      N2051   1.157       .  T
C2034      C2035   1.414       .  A
C2034      C2039   1.449   1_655  S
C2035      C2036   1.414       .  A
C2035      C2041   1.450       .  S
C2036      C2037   1.415       .  A
C2037      C2038   1.413       .  A
C2037      C2040   1.451       .  S
C2038      C2042   1.451       .  S
C2039      N2046   1.157       .  T
C2040      N2047   1.157       .  T
C2041      N2045   1.157   1_654  T
C2042      N2048   1.157       .  T
C2043      N2052   1.157       .  T
C2044      N2050   1.157       .  T
C2053      C2054   1.413   1_655  A
C2053      C2058   1.414       .  A
C2053      C2071   1.449       .  S
C2054      C2059   1.509       .  S
C2054      C2055   1.412       .  A
C2055      C2056   1.416       .  A
C2055      C2060   1.450       .  S
C2056      C2057   1.417       .  A
C2056      C2072   1.450       .  S
C2057      C2058   1.415   1_455  A
C2058      C2061   1.452       .  S
C2059      C2062   1.401       .  A
C2059      C2066   1.399       .  A
C2060      N2077   1.157       .  T
C2061      N2079   1.157       .  T
C2062      C2063   1.424       .  A
C2062      C2067   1.454       .  S
C2063      C2064   1.452       .  A
C2063      C2069   1.449       .  S
C2064      C2065   1.452       .  A
C2065      C2066   1.418       .  A
C2065      C2068   1.451       .  S
C2066      C2070   1.456       .  S
C2067      N2074   1.157       .  T
C2068      N2075   1.157       .  T
C2069      N2073   1.158       .  T
C2070      N2076   1.157       .  T
C2071      N2080   1.157       .  T
C2072      N2078   1.157       .  T
C2081      C2082   1.397       .  A
C2081      C2086   1.416       .  A
C2081      C2099   1.456       .  S
C2082      C2087   1.505       .  S
C2082      C2083   1.400       .  A
C2083      C2084   1.423       .  A
C2083      C2088   1.455       .  S
C2084      C2085   1.453       .  A
C2084      C2100   1.450       .  S
C2085      C2086   1.451       .  A
C2086      C2089   1.451       .  S
C2087      C2090   1.411       .  A
C2087      C2094   1.412       .  A
C2088      N2105   1.157       .  T
C2089      N2107   1.157       .  T
C2090      C2091   1.414       .  A
C2090      C2095   1.451       .  S
C2091      C2092   1.417       .  A
C2091      C2097   1.451       .  S
C2092      C2093   1.416       .  A
C2093      C2094   1.413       .  A
C2093      C2096   1.452       .  S
C2094      C2098   1.449       .  S
C2095      N2102   1.157       .  T
C2096      N2103   1.158       .  T
C2097      N2101   1.157       .  T
C2098      N2104   1.157       .  T
C2099      N2108   1.157       .  T
C2100      N2106   1.158       .  T
C2109      C2110   1.411       .  A
C2109      C2114   1.412       .  A
C2109      C2127   1.451       .  S
C2110      C2115   1.503       .  S
C2110      C2111   1.411       .  A
C2111      C2112   1.412       .  A
C2111      C2116   1.450       .  S
C2112      C2113   1.417       .  A
C2112      C2128   1.452       .  S
C2113      C2114   1.416       .  A
C2114      C2117   1.451       .  S
C2115      C2118   1.398       .  A
C2115      C2122   1.400       .  A
C2116      N2133   1.157       .  T
C2117      N2135   1.157       .  T
C2118      C2119   1.414       .  A
C2118      C2123   1.457       .  S
C2119      C2120   1.452       .  A
C2119      C2125   1.452       .  S
C2120      C2121   1.451       .  A
C2121      C2122   1.421       .  A
C2121      C2124   1.450       .  S
C2122      C2126   1.454       .  S
C2123      N2130   1.157       .  T
C2124      N2131   1.158       .  T
C2125      N2129   1.157       .  T
C2126      N2132   1.157       .  T
C2127      N2136   1.157       .  T
C2128      N2134   1.157       .  T
C2137      C2138   1.398       .  A
C2137      C2142   1.417       .  A
C2137      C2155   1.459       .  S
C2138      C2143   1.507       .  S
C2138      C2139   1.399       .  A
C2139      C2140   1.421       .  A
C2139      C2144   1.453       .  S
C2140      C2141   1.452       .  A
C2140      C2156   1.452       .  S
C2141      C2142   1.454       .  A
C2142      C2145   1.447       .  S
C2143      C2146   1.413       .  A
C2143      C2150   1.410       .  A
C2144      N2161   1.157       .  T
C2145      N2163   1.157       .  T
C2146      C2147   1.415       .  A
C2146      C2151   1.451       .  S
C2147      C2148   1.415       .  A
C2147      C2153   1.450       .  S
C2148      C2149   1.418       .  A
C2149      C2150   1.415       .  A
C2149      C2152   1.451       .  S
C2150      C2154   1.450       .  S
C2151      N2158   1.157       .  T
C2152      N2159   1.157       .  T
C2153      N2157   1.157       .  T
C2154      N2160   1.157       .  T
C2155      N2164   1.157       .  T
C2156      N2162   1.157       .  T
C2165      C2166   1.396       .  A
C2165      C2170   1.416       .  A
C2165      C2183   1.453       .  S
C2166      C2171   1.495       .  S
C2166      C2167   1.394       .  A
C2167      C2168   1.412       .  A
C2167      C2172   1.459       .  S
C2168      C2169   1.455       .  A
C2168      C2184   1.446       .  S
C2169      C2170   1.452       .  A
C2170      C2173   1.451       .  S
C2171      C2174   1.407       .  A
C2171      C2178   1.410       .  A
C2172      N2189   1.157       .  T
C2173      N2191   1.157       .  T
C2174      C2175   1.411       .  A
C2174      C2179   1.451       .  S
C2175      C2176   1.421       .  A
C2175      C2181   1.451       .  S
C2176      C2177   1.420       .  A
C2177      C2178   1.410       .  A
C2177      C2180   1.452       .  S
C2178      C2182   1.452       .  S
C2179      N2186   1.157       .  T
C2180      N2187   1.157       .  T
C2181      N2185   1.157       .  T
C2182      N2188   1.157       .  T
C2183      N2192   1.157       .  T
C2184      N2190   1.157       .  T
C2193      C2194   1.400       .  A
C2193      C2198   1.422       .  A
C2193      C2211   1.452       .  S
C2194      C2199   1.503       .  S
C2194      C2195   1.396       .  A
C2195      C2196   1.412       .  A
C2195      C2200   1.460       .  S
C2196      C2197   1.457       .  A
C2196      C2212   1.449       .  S
C2197      C2198   1.448       .  A
C2198      C2201   1.450       .  S
C2199      C2202   1.410       .  A
C2199      C2206   1.415       .  A
C2200      N2217   1.157       .  T
C2201      N2219   1.157       .  T
C2202      C2203   1.413       .  A
C2202      C2207   1.449       .  S
C2203      C2204   1.414       .  A
C2203      C2209   1.450       .  S
C2204      C2205   1.411       .  A
C2205      C2206   1.412       .  A
C2205      C2208   1.451       .  S
C2206      C2210   1.451       .  S
C2207      N2214   1.157       .  T
C2208      N2215   1.157       .  T
C2209      N2213   1.157       .  T
C2210      N2216   1.157       .  T
C2211      N2220   1.157       .  T
C2212      N2218   1.156       .  T
C2221      C2222   1.414       .  A
C2221      C2226   1.414       .  A
C2221      C2239   1.449       .  S
C2222      C2227   1.515       .  S
C2222      C2223   1.415       .  A
C2223      C2224   1.419       .  A
C2223      C2228   1.450       .  S
C2224      C2225   1.417       .  A
C2224      C2240   1.450       .  S
C2225      C2226   1.415       .  A
C2226      C2229   1.451       .  S
C2227      C2230   1.405       .  A
C2227      C2234   1.400       .  A
C2228      N2245   1.157       .  T
C2229      N2247   1.157       .  T
C2230      C2231   1.428       .  A
C2230      C2235   1.454       .  S
C2231      C2232   1.450       .  A
C2231      C2237   1.448       .  S
C2232      C2233   1.452       .  A
C2233      C2234   1.417       .  A
C2233      C2236   1.452       .  S
C2234      C2238   1.456       .  S
C2235      N2242   1.157       .  T
C2236      N2243   1.157       .  T
C2237      N2241   1.158       .  T
C2238      N2244   1.157       .  T
C2239      N2248   1.157       .  T
C2240      N2246   1.157       .  T
C2249      C2250   1.398       .  A
C2249      C2254   1.422       .  A
C2249      C2267   1.457       .  S
C2250      C2255   1.515       .  S
C2250      C2251   1.400       .  A
C2251      C2252   1.424       .  A
C2251      C2256   1.454       .  S
C2252      C2253   1.452       .  A
C2252      C2268   1.449       .  S
C2253      C2254   1.458       .  A
C2254      C2257   1.447       .  S
C2255      C2258   1.411       .  A
C2255      C2262   1.410       .  A
C2256      N2273   1.157       .  T
C2257      N2275   1.157       .  T
C2258      C2259   1.417       .  A
C2258      C2263   1.452       .  S
C2259      C2260   1.425       .  A
C2259      C2265   1.451       .  S
C2260      C2261   1.426       .  A
C2261      C2262   1.420       .  A
C2261      C2264   1.450       .  S
C2262      C2266   1.450       .  S
C2263      N2270   1.157       .  T
C2264      N2271   1.158       .  T
C2265      N2269   1.157       .  T
C2266      N2272   1.157       .  T
C2267      N2276   1.157       .  T
C2268      N2274   1.157       .  T
C2277      C2278   1.414       .  A
C2277      C2282   1.416       .  A
C2277      C2295   1.451       .  S
C2278      C2283   1.509       .  S
C2278      C2279   1.411       .  A
C2279      C2280   1.415       .  A
C2279      C2284   1.449       .  S
C2280      C2281   1.416       .  A
C2280      C2296   1.451       .  S
C2281      C2282   1.414       .  A
C2282      C2285   1.450       .  S
C2283      C2286   1.398       .  A
C2283      C2290   1.401       .  A
C2284      N2301   1.157       .  T
C2285      N2303   1.157       .  T
C2286      C2287   1.417       .  A
C2286      C2291   1.459       .  S
C2287      C2288   1.455       .  A
C2287      C2293   1.447       .  S
C2288      C2289   1.449       .  A
C2289      C2290   1.424       .  A
C2289      C2292   1.451       .  S
C2290      C2294   1.452       .  S
C2291      N2298   1.157       .  T
C2292      N2299   1.157       .  T
C2293      N2297   1.157       .  T
C2294      N2300   1.157       .  T
C2295      N2304   1.157       .  T
C2296      N2302   1.157       .  T
C2305      C2306   1.413       .  A
C2305      C2310   1.414       .  A
C2305      C2323   1.448       .  S
C2306      C2311   1.509       .  S
C2306      C2307   1.413       .  A
C2307      C2308   1.415       .  A
C2307      C2312   1.451       .  S
C2308      C2309   1.418       .  A
C2308      C2324   1.451       .  S
C2309      C2310   1.415       .  A
C2310      C2313   1.452       .  S
C2311      C2314   1.403       .  A
C2311      C2318   1.398       .  A
C2312      N2329   1.157       .  T
C2313      N2331   1.157       .  T
C2314      C2315   1.426       .  A
C2314      C2319   1.453       .  S
C2315      C2316   1.450       .  A
C2315      C2321   1.449       .  S
C2316      C2317   1.452       .  A
C2317      C2318   1.416       .  A
C2317      C2320   1.450       .  S
C2318      C2322   1.457       .  S
C2319      N2326   1.157       .  T
C2320      N2327   1.157       .  T
C2321      N2325   1.158       .  T
C2322      N2328   1.157       .  T
C2323      N2332   1.157       .  T
C2324      N2330   1.157       .  T
C2333      C2334   1.396       .  A
C2333      C2338   1.418       .  A
C2333      C2351   1.459       .  S
C2334      C2339   1.511       .  S
C2334      C2335   1.401       .  A
C2335      C2336   1.422       .  A
C2335      C2340   1.453       .  S
C2336      C2337   1.450       .  A
C2336      C2352   1.450       .  S
C2337      C2338   1.458       .  A
C2338      C2341   1.445       .  S
C2339      C2342   1.415       .  A
C2339      C2346   1.412       .  A
C2340      N2357   1.157       .  T
C2341      N2359   1.156       .  T
C2342      C2343   1.413       .  A
C2342      C2347   1.451       .  S
C2343      C2344   1.417       .  A
C2343      C2349   1.452       .  S
C2344      C2345   1.419       .  A
C2345      C2346   1.415       .  A
C2345      C2348   1.451       .  S
C2346      C2350   1.450       .  S
C2347      N2354   1.157       .  T
C2348      N2355   1.157       .  T
C2349      N2353   1.158       .  T
C2350      N2356   1.157       .  T
C2351      N2360   1.157       .  T
C2352      N2358   1.157       .  T
C2361      C2362   1.399       .  A
C2361      C2366   1.418       .  A
C2361      C2379   1.453       .  S
C2362      C2367   1.499       .  S
C2362      C2363   1.396       .  A
C2363      C2364   1.410       .  A
C2363      C2368   1.457       .  S
C2364      C2365   1.451       .  A
C2364      C2380   1.447       .  S
C2365      C2366   1.450       .  A
C2366      C2369   1.451       .  S
C2367      C2370   1.409       .  A
C2367      C2374   1.408       .  A
C2368      N2385   1.157       .  T
C2369      N2387   1.157       .  T
C2370      C2371   1.410       .  A
C2370      C2375   1.453       .  S
C2371      C2372   1.421       .  A
C2371      C2377   1.452       .  S
C2372      C2373   1.422       .  A
C2373      C2374   1.414       .  A
C2373      C2376   1.451       .  S
C2374      C2378   1.450       .  S
C2375      N2382   1.157       .  T
C2376      N2383   1.157       .  T
C2377      N2381   1.157       .  T
C2378      N2384   1.157       .  T
C2379      N2388   1.157       .  T
C2380      N2386   1.157       .  T
C2389      C2390   1.399       .  A
C2389      C2394   1.415       .  A
C2389      C2407   1.455       .  S
C2390      C2395   1.500       .  S
C2390      C2391   1.398       .  A
C2391      C2392   1.418       .  A
C2391      C2396   1.456       .  S
C2392      C2393   1.453       .  A
C2392      C2408   1.450       .  S
C2393      C2394   1.449       .  A
C2394      C2397   1.452       .  S
C2395      C2398   1.412       .  A
C2395      C2402   1.410       .  A
C2396      N2413   1.157       .  T
C2397      N2415   1.157       .  T
C2398      C2399   1.412       .  A
C2398      C2403   1.449       .  S
C2399      C2400   1.414       .  A
C2399      C2405   1.452       .  S
C2400      C2401   1.416       .  A
C2401      C2402   1.410       .  A
C2401      C2404   1.452       .  S
C2402      C2406   1.451       .  S
C2403      N2410   1.157       .  T
C2404      N2411   1.157       .  T
C2405      N2409   1.157       .  T
C2406      N2412   1.157       .  T
C2407      N2416   1.157       .  T
C2408      N2414   1.158       .  T
C2417      C2418   1.397       .  A
C2417      C2422   1.415       .  A
C2417      C2435   1.458       .  S
C2418      C2423   1.506       .  S
C2418      C2419   1.399       .  A
C2419      C2420   1.421       .  A
C2419      C2424   1.452       .  S
C2420      C2421   1.450       .  A
C2420      C2436   1.450       .  S
C2421      C2422   1.455       .  A
C2422      C2425   1.447       .  S
C2423      C2426   1.412       .  A
C2423      C2430   1.414       .  A
C2424      N2441   1.157       .  T
C2425      N2443   1.157       .  T
C2426      C2427   1.415       .  A
C2426      C2431   1.449       .  S
C2427      C2428   1.414       .  A
C2427      C2433   1.450       .  S
C2428      C2429   1.411       .  A
C2429      C2430   1.412       .  A
C2429      C2432   1.451       .  S
C2430      C2434   1.450       .  S
C2431      N2438   1.157       .  T
C2432      N2439   1.157       .  T
C2433      N2437   1.157       .  T
C2434      N2440   1.157       .  T
C2435      N2444   1.157       .  T
C2436      N2442   1.157       .  T
C2445      C2446   1.402       .  A
C2445      C2450   1.426       .  A
C2445      C2463   1.453       .  S
C2446      C2451   1.509       .  S
C2446      C2447   1.399       .  A
C2447      C2448   1.416       .  A
C2447      C2452   1.457       .  S
C2448      C2449   1.451       .  A
C2448      C2464   1.451       .  S
C2449      C2450   1.451       .  A
C2450      C2453   1.449       .  S
C2451      C2454   1.412       .  A
C2451      C2458   1.412       .  A
C2452      N2469   1.157       .  T
C2453      N2471   1.158       .  T
C2454      C2455   1.415       .  A
C2454      C2459   1.451       .  S
C2455      C2456   1.417       .  A
C2455      C2461   1.450       .  S
C2456      C2457   1.417       .  A
C2457      C2458   1.415       .  A
C2457      C2460   1.451       .  S
C2458      C2462   1.449       .  S
C2459      N2466   1.157       .  T
C2460      N2467   1.157       .  T
C2461      N2465   1.157       .  T
C2462      N2468   1.157       .  T
C2463      N2472   1.157       .  T
C2464      N2470   1.157       .  T
C2473      C2474   1.408       .  A
C2473      C2478   1.412       .  A
C2473      C2491   1.450       .  S
C2474      C2479   1.499       .  S
C2474      C2475   1.411       .  A
C2475      C2476   1.409       .  A
C2475      C2480   1.452       .  S
C2476      C2477   1.420       .  A
C2476      C2492   1.453       .  S
C2477      C2478   1.420       .  A
C2478      C2481   1.451       .  S
C2479      C2482   1.398       .  A
C2479      C2486   1.394       .  A
C2480      N2497   1.157       .  T
C2481      N2499   1.157       .  T
C2482      C2483   1.419       .  A
C2482      C2487   1.453       .  S
C2483      C2484   1.451       .  A
C2483      C2489   1.450       .  S
C2484      C2485   1.454       .  A
C2485      C2486   1.411       .  A
C2485      C2488   1.446       .  S
C2486      C2490   1.459       .  S
C2487      N2494   1.157       .  T
C2488      N2495   1.156       .  T
C2489      N2493   1.157       .  T
C2490      N2496   1.157       .  T
C2491      N2500   1.157       .  T
C2492      N2498   1.158       .  T
C2501      C2502   1.412   1_554  A
C2501      C2506   1.412       .  A
C2501      C2519   1.449       .  S
C2502      C2507   1.504       .  S
C2502      C2503   1.411       .  A
C2503      C2504   1.413       .  A
C2503      C2508   1.451       .  S
C2504      C2505   1.416       .  A
C2504      C2520   1.448       .  S
C2505      C2506   1.415   1_556  A
C2506      C2509   1.452       .  S
C2507      C2510   1.400       .  A
C2507      C2514   1.400       .  A
C2508      N2525   1.157       .  T
C2509      N2527   1.157       .  T
C2510      C2511   1.421       .  A
C2510      C2515   1.454       .  S
C2511      C2512   1.451       .  A
C2511      C2517   1.449       .  S
C2512      C2513   1.450       .  A
C2513      C2514   1.415       .  A
C2513      C2516   1.452       .  S
C2514      C2518   1.456       .  S
C2515      N2522   1.157       .  T
C2516      N2523   1.157       .  T
C2517      N2521   1.158       .  T
C2518      N2524   1.157       .  T
C2519      N2528   1.157       .  T
C2520      N2526   1.157       .  T
C2529      C2530   1.409       .  A
C2529      C2534   1.410       .  A
C2529      C2547   1.450   1_554  S
C2530      C2535   1.496       .  S
C2530      C2531   1.412       .  A
C2531      C2532   1.410       .  A
C2531      C2536   1.451       .  S
C2532      C2533   1.412       .  A
C2532      C2548   1.451       .  S
C2533      C2534   1.415       .  A
C2534      C2537   1.451       .  S
C2535      C2538   1.398       .  A
C2535      C2542   1.395   1_554  A
C2536      N2553   1.157       .  T
C2537      N2555   1.157   1_544  T
C2538      C2539   1.417       .  A
C2538      C2543   1.453       .  S
C2539      C2540   1.449   1_554  A
C2539      C2545   1.450       .  S
C2540      C2541   1.452       .  A
C2541      C2542   1.410       .  A
C2541      C2544   1.447       .  S
C2542      C2546   1.457       .  S
C2543      N2550   1.157       .  T
C2544      N2551   1.157       .  T
C2545      N2549   1.157       .  T
C2546      N2552   1.157       .  T
C2547      N2556   1.157       .  T
C2548      N2554   1.157       .  T
C2557      C2558   1.412       .  A
C2557      C2562   1.413       .  A
C2557      C2575   1.451       .  S
C2558      C2563   1.503       .  S
C2558      C2559   1.413       .  A
C2559      C2560   1.411       .  A
C2559      C2564   1.448       .  S
C2560      C2561   1.413       .  A
C2560      C2576   1.452       .  S
C2561      C2562   1.417       .  A
C2562      C2565   1.451       .  S
C2563      C2566   1.398       .  A
C2563      C2570   1.402       .  A
C2564      N2581   1.157       .  T
C2565      N2583   1.157       .  T
C2566      C2567   1.412       .  A
C2566      C2571   1.457       .  S
C2567      C2568   1.451       .  A
C2567      C2573   1.451       .  S
C2568      C2569   1.449       .  A
C2569      C2570   1.423       .  A
C2569      C2572   1.449       .  S
C2570      C2574   1.453       .  S
C2571      N2578   1.157       .  T
C2572      N2579   1.158   1_565  T
C2573      N2577   1.157       .  T
C2574      N2580   1.157       .  T
C2575      N2584   1.157       .  T
C2576      N2582   1.157       .  T
C2585      C2586   1.399       .  A
C2585      C2590   1.421       .  A
C2585      C2603   1.453       .  S
C2586      C2591   1.498       .  S
C2586      C2587   1.394       .  A
C2587      C2588   1.409       .  A
C2587      C2592   1.459       .  S
C2588      C2589   1.453       .  A
C2588      C2604   1.447       .  S
C2589      C2590   1.451       .  A
C2590      C2593   1.450       .  S
C2591      C2594   1.407       .  A
C2591      C2598   1.409       .  A
C2592      N2609   1.157       .  T
C2593      N2611   1.157       .  T
C2594      C2595   1.414       .  A
C2594      C2599   1.450       .  S
C2595      C2596   1.422       .  A
C2595      C2601   1.451       .  S
C2596      C2597   1.422       .  A
C2597      C2598   1.409       .  A
C2597      C2600   1.453       .  S
C2598      C2602   1.453       .  S
C2599      N2606   1.157       .  T
C2600      N2607   1.158       .  T
C2601      N2605   1.157       .  T
C2602      N2608   1.157       .  T
C2603      N2612   1.157       .  T
C2604      N2610   1.156       .  T
C2613      C2614   1.412   1_545  A
C2613      C2618   1.412       .  A
C2613      C2631   1.451       .  S
C2614      C2619   1.505       .  S
C2614      C2615   1.411       .  A
C2615      C2616   1.413       .  A
C2615      C2620   1.451       .  S
C2616      C2617   1.419       .  A
C2616      C2632   1.451       .  S
C2617      C2618   1.420   1_565  A
C2618      C2621   1.453       .  S
C2619      C2622   1.401       .  A
C2619      C2626   1.400       .  A
C2620      N2637   1.157       .  T
C2621      N2639   1.158       .  T
C2622      C2623   1.422       .  A
C2622      C2627   1.454       .  S
C2623      C2624   1.451       .  A
C2623      C2629   1.449   1_565  S
C2624      C2625   1.450       .  A
C2625      C2626   1.414       .  A
C2625      C2628   1.452       .  S
C2626      C2630   1.456       .  S
C2627      N2634   1.157       .  T
C2628      N2635   1.157       .  T
C2629      N2633   1.158       .  T
C2630      N2636   1.157       .  T
C2631      N2640   1.157       .  T
C2632      N2638   1.157       .  T
C2641      C2642   1.411       .  A
C2641      C2646   1.408       .  A
C2641      C2659   1.451       .  S
C2642      C2647   1.495       .  S
C2642      C2643   1.408       .  A
C2643      C2644   1.411       .  A
C2643      C2648   1.450       .  S
C2644      C2645   1.417       .  A
C2644      C2660   1.451       .  S
C2645      C2646   1.413       .  A
C2646      C2649   1.451       .  S
C2647      C2650   1.395   1_545  A
C2647      C2654   1.399       .  A
C2648      N2665   1.157       .  T
C2649      N2667   1.157       .  T
C2650      C2651   1.406       .  A
C2650      C2655   1.459       .  S
C2651      C2652   1.451   1_565  A
C2651      C2657   1.445       .  S
C2652      C2653   1.449       .  A
C2653      C2654   1.420       .  A
C2653      C2656   1.449       .  S
C2654      C2658   1.452       .  S
C2655      N2662   1.157       .  T
C2656      N2663   1.157       .  T
C2657      N2661   1.155       .  T
C2658      N2664   1.157       .  T
C2659      N2668   1.157       .  T
C2660      N2666   1.157   1_455  T
C2669      C2670   1.401       .  A
C2669      C2674   1.421       .  A
C2669      C2687   1.454       .  S
C2670      C2675   1.504       .  S
C2670      C2671   1.399       .  A
C2671      C2672   1.415       .  A
C2671      C2676   1.456       .  S
C2672      C2673   1.452       .  A
C2672      C2688   1.453       .  S
C2673      C2674   1.450       .  A
C2674      C2677   1.450       .  S
C2675      C2678   1.412       .  A
C2675      C2682   1.412       .  A
C2676      N2693   1.157       .  T
C2677      N2695   1.158       .  T
C2678      C2679   1.413       .  A
C2678      C2683   1.451       .  S
C2679      C2680   1.417       .  A
C2679      C2685   1.451       .  S
C2680      C2681   1.416       .  A
C2681      C2682   1.412       .  A
C2681      C2684   1.452       .  S
C2682      C2686   1.450       .  S
C2683      N2690   1.157       .  T
C2684      N2691   1.157       .  T
C2685      N2689   1.157       .  T
C2686      N2692   1.157       .  T
C2687      N2696   1.157       .  T
C2688      N2694   1.157       .  T
C2697      C2698   1.398       .  A
C2697      C2702   1.412       .  A
C2697      C2715   1.456       .  S
C2698      C2703   1.499       .  S
C2698      C2699   1.400       .  A
C2699      C2700   1.419       .  A
C2699      C2704   1.454       .  S
C2700      C2701   1.451       .  A
C2700      C2716   1.450       .  S
C2701      C2702   1.450       .  A
C2702      C2705   1.452       .  S
C2703      C2706   1.409       .  A
C2703      C2710   1.412       .  A
C2704      N2721   1.157       .  T
C2705      N2723   1.157       .  T
C2706      C2707   1.410       .  A
C2706      C2711   1.450       .  S
C2707      C2708   1.418       .  A
C2707      C2713   1.452       .  S
C2708      C2709   1.416       .  A
C2709      C2710   1.413       .  A
C2709      C2712   1.450       .  S
C2710      C2714   1.451       .  S
C2711      N2718   1.157       .  T
C2712      N2719   1.157       .  T
C2713      N2717   1.157       .  T
C2714      N2720   1.157       .  T
C2715      N2724   1.157       .  T
C2716      N2722   1.158       .  T
C2725      C2726   1.398       .  A
C2725      C2730   1.417       .  A
C2725      C2743   1.452       .  S
C2726      C2731   1.498       .  S
C2726      C2727   1.396       .  A
C2727      C2728   1.411       .  A
C2727      C2732   1.459       .  S
C2728      C2729   1.452       .  A
C2728      C2744   1.444       .  S
C2729      C2730   1.452       .  A
C2730      C2733   1.451       .  S
C2731      C2734   1.413       .  A
C2731      C2738   1.410       .  A
C2732      N2749   1.157       .  T
C2733      N2751   1.157       .  T
C2734      C2735   1.409       .  A
C2734      C2739   1.451       .  S
C2735      C2736   1.411       .  A
C2735      C2741   1.451       .  S
C2736      C2737   1.414       .  A
C2737      C2738   1.412       .  A
C2737      C2740   1.451       .  S
C2738      C2742   1.450       .  S
C2739      N2746   1.157       .  T
C2740      N2747   1.157       .  T
C2741      N2745   1.157       .  T
C2742      N2748   1.157       .  T
C2743      N2752   1.157       .  T
C2744      N2750   1.156       .  T
C2753      C2754   1.411       .  A
C2753      C2758   1.407       .  A
C2753      C2771   1.450   1_556  S
C2754      C2759   1.499       .  S
C2754      C2755   1.413       .  A
C2755      C2756   1.412       .  A
C2755      C2760   1.451       .  S
C2756      C2757   1.414       .  A
C2756      C2772   1.451       .  S
C2757      C2758   1.412       .  A
C2758      C2761   1.452   1_556  S
C2759      C2762   1.398       .  A
C2759      C2766   1.400       .  A
C2760      N2777   1.157       .  T
C2761      N2779   1.157       .  T
C2762      C2763   1.412       .  A
C2762      C2767   1.456       .  S
C2763      C2764   1.451       .  A
C2763      C2769   1.453       .  S
C2764      C2765   1.451       .  A
C2765      C2766   1.419       .  A
C2765      C2768   1.449       .  S
C2766      C2770   1.456       .  S
C2767      N2774   1.157       .  T
C2768      N2775   1.158       .  T
C2769      N2773   1.157       .  T
C2770      N2776   1.157       .  T
C2771      N2780   1.157       .  T
C2772      N2778   1.158       .  T
C2781      C2782   1.399       .  A
C2781      C2786   1.420       .  A
C2781      C2799   1.453       .  S
C2782      C2787   1.500       .  S
C2782      C2783   1.397   1_554  A
C2783      C2784   1.413       .  A
C2783      C2788   1.459       .  S
C2784      C2785   1.452   1_556  A
C2784      C2800   1.445       .  S
C2785      C2786   1.450       .  A
C2786      C2789   1.451       .  S
C2787      C2790   1.412       .  A
C2787      C2794   1.412       .  A
C2788      N2805   1.157       .  T
C2789      N2807   1.157       .  T
C2790      C2791   1.411       .  A
C2790      C2795   1.450       .  S
C2791      C2792   1.411       .  A
C2791      C2797   1.451       .  S
C2792      C2793   1.412       .  A
C2793      C2794   1.413       .  A
C2793      C2796   1.450   1_554  S
C2794      C2798   1.450   1_554  S
C2795      N2802   1.157       .  T
C2796      N2803   1.157       .  T
C2797      N2801   1.157       .  T
C2798      N2804   1.157       .  T
C2799      N2808   1.157       .  T
C2800      N2806   1.155       .  T
C2809      C2810   1.395       .  A
C2809      C2814   1.416       .  A
C2809      C2827   1.458       .  S
C2810      C2815   1.500       .  S
C2810      C2811   1.397       .  A
C2811      C2812   1.418       .  A
C2811      C2816   1.454       .  S
C2812      C2813   1.450       .  A
C2812      C2828   1.451       .  S
C2813      C2814   1.457       .  A
C2814      C2817   1.448       .  S
C2815      C2818   1.410       .  A
C2815      C2822   1.411       .  A
C2816      N2833   1.157       .  T
C2817      N2835   1.157       .  T
C2818      C2819   1.413       .  A
C2818      C2823   1.450       .  S
C2819      C2820   1.418       .  A
C2819      C2825   1.451       .  S
C2820      C2821   1.416       .  A
C2821      C2822   1.411       .  A
C2821      C2824   1.451       .  S
C2822      C2826   1.452       .  S
C2823      N2830   1.157       .  T
C2824      N2831   1.157       .  T
C2825      N2829   1.157       .  T
C2826      N2832   1.157       .  T
C2827      N2836   1.157       .  T
C2828      N2834   1.157       .  T
C2837      C2838   1.412       .  A
C2837      C2842   1.414       .  A
C2837      C2855   1.452       .  S
C2838      C2843   1.510       .  S
C2838      C2839   1.413       .  A
C2839      C2840   1.415       .  A
C2839      C2844   1.450       .  S
C2840      C2841   1.419       .  A
C2840      C2856   1.452       .  S
C2841      C2842   1.420       .  A
C2842      C2845   1.451       .  S
C2843      C2846   1.401       .  A
C2843      C2850   1.405       .  A
C2844      N2861   1.157       .  T
C2845      N2863   1.157       .  T
C2846      C2847   1.415       .  A
C2846      C2851   1.457       .  S
C2847      C2848   1.451       .  A
C2847      C2853   1.451       .  S
C2848      C2849   1.448       .  A
C2849      C2850   1.425       .  A
C2849      C2852   1.449       .  S
C2850      C2854   1.453       .  S
C2851      N2858   1.157       .  T
C2852      N2859   1.158   1_565  T
C2853      N2857   1.157       .  T
C2854      N2860   1.157       .  T
C2855      N2864   1.157       .  T
C2856      N2862   1.157       .  T
C2865      C2866   1.410       .  A
C2865      C2870   1.414       .  A
C2865      C2883   1.450       .  S
C2866      C2871   1.503       .  S
C2866      C2867   1.411       .  A
C2867      C2868   1.412       .  A
C2867      C2872   1.451       .  S
C2868      C2869   1.417       .  A
C2868      C2884   1.451       .  S
C2869      C2870   1.417       .  A
C2870      C2873   1.451       .  S
C2871      C2874   1.397       .  A
C2871      C2878   1.399       .  A
C2872      N2889   1.157       .  T
C2873      N2891   1.157       .  T
C2874      C2875   1.416       .  A
C2874      C2879   1.459       .  S
C2875      C2876   1.455       .  A
C2875      C2881   1.447       .  S
C2876      C2877   1.450       .  A
C2877      C2878   1.419       .  A
C2877      C2880   1.452       .  S
C2878      C2882   1.452       .  S
C2879      N2886   1.157       .  T
C2880      N2887   1.157       .  T
C2881      N2885   1.157       .  T
C2882      N2888   1.157       .  T
C2883      N2892   1.157       .  T
C2884      N2890   1.157       .  T
C2893      C2894   1.406       .  A
C2893      C2898   1.425       .  A
C2893      C2911   1.453       .  S
C2894      C2899   1.509       .  S
C2894      C2895   1.397       .  A
C2895      C2896   1.414       .  A
C2895      C2900   1.456       .  S
C2896      C2897   1.454       .  A
C2896      C2912   1.451       .  S
C2897      C2898   1.446       .  A
C2898      C2901   1.448       .  S
C2899      C2902   1.418       .  A
C2899      C2906   1.411       .  A
C2900      N2917   1.157       .  T
C2901      N2919   1.158       .  T
C2902      C2903   1.415       .  A
C2902      C2907   1.449       .  S
C2903      C2904   1.412       .  A
C2903      C2909   1.452       .  S
C2904      C2905   1.418       .  A
C2905      C2906   1.412       .  A
C2905      C2908   1.452       .  S
C2906      C2910   1.451       .  S
C2907      N2914   1.157       .  T
C2908      N2915   1.157       .  T
C2909      N2913   1.157       .  T
C2910      N2916   1.157       .  T
C2911      N2920   1.157       .  T
C2912      N2918   1.157       .  T
C2921      C2922   1.411       .  A
C2921      C2926   1.414       .  A
C2921      C2939   1.451       .  S
C2922      C2927   1.506       .  S
C2922      C2923   1.411       .  A
C2923      C2924   1.415       .  A
C2923      C2928   1.452       .  S
C2924      C2925   1.421       .  A
C2924      C2940   1.451       .  S
C2925      C2926   1.419       .  A
C2926      C2929   1.451       .  S
C2927      C2930   1.399       .  A
C2927      C2934   1.397       .  A
C2928      N2945   1.157       .  T
C2929      N2947   1.157       .  T
C2930      C2931   1.420       .  A
C2930      C2935   1.453       .  S
C2931      C2932   1.452       .  A
C2931      C2937   1.451       .  S
C2932      C2933   1.454       .  A
C2933      C2934   1.417       .  A
C2933      C2936   1.444       .  S
C2934      C2938   1.459       .  S
C2935      N2942   1.157       .  T
C2936      N2943   1.156       .  T
C2937      N2941   1.157   1_655  T
C2938      N2944   1.157       .  T
C2939      N2948   1.157       .  T
C2940      N2946   1.158       .  T
C2949      C2950   1.402       .  A
C2949      C2954   1.420       .  A
C2949      C2967   1.455       .  S
C2950      C2955   1.504       .  S
C2950      C2951   1.400       .  A
C2951      C2952   1.414       .  A
C2951      C2956   1.456       .  S
C2952      C2953   1.449       .  A
C2952      C2968   1.452       .  S
C2953      C2954   1.451       .  A
C2954      C2957   1.451       .  S
C2955      C2958   1.410       .  A
C2955      C2962   1.412       .  A
C2956      N2973   1.157       .  T
C2957      N2975   1.158       .  T
C2958      C2959   1.411       .  A
C2958      C2963   1.451       .  S
C2959      C2960   1.420       .  A
C2959      C2965   1.453       .  S
C2960      C2961   1.419       .  A
C2961      C2962   1.414       .  A
C2961      C2964   1.451       .  S
C2962      C2966   1.451       .  S
C2963      N2970   1.157       .  T
C2964      N2971   1.158       .  T
C2965      N2969   1.158       .  T
C2966      N2972   1.157       .  T
C2967      N2976   1.157       .  T
C2968      N2974   1.157       .  T
C2977      C2978   1.397       .  A
C2977      C2982   1.415       .  A
C2977      C2995   1.460       .  S
C2978      C2983   1.498       .  S
C2978      C2979   1.396       .  A
C2979      C2980   1.416       .  A
C2979      C2984   1.453       .  S
C2980      C2981   1.451       .  A
C2980      C2996   1.452       .  S
C2981      C2982   1.453       .  A
C2982      C2985   1.445       .  S
C2983      C2986   1.413       .  A
C2983      C2990   1.411       .  A
C2984      N3001   1.157       .  T
C2985      N3003   1.157       .  T
C2986      C2987   1.411       .  A
C2986      C2991   1.450       .  S
C2987      C2988   1.409       .  A
C2987      C2993   1.450       .  S
C2988      C2989   1.411       .  A
C2989      C2990   1.410       .  A
C2989      C2992   1.451       .  S
C2990      C2994   1.450       .  S
C2991      N2998   1.157       .  T
C2992      N2999   1.157   1_565  T
C2993      N2997   1.157       .  T
C2994      N3000   1.157       .  T
C2995      N3004   1.157       .  T
C2996      N3002   1.157       .  T
C3005      C3006   1.398       .  A
C3005      C3010   1.417       .  A
C3005      C3023   1.454       .  S
C3006      C3011   1.498       .  S
C3006      C3007   1.398       .  A
C3007      C3008   1.414       .  A
C3007      C3012   1.456       .  S
C3008      C3009   1.451       .  A
C3008      C3024   1.452       .  S
C3009      C3010   1.451       .  A
C3010      C3013   1.450       .  S
C3011      C3014   1.409       .  A
C3011      C3018   1.409       .  A
C3012      N3029   1.157       .  T
C3013      N3031   1.158       .  T
C3014      C3015   1.411       .  A
C3014      C3019   1.449       .  S
C3015      C3016   1.419       .  A
C3015      C3021   1.452       .  S
C3016      C3017   1.419       .  A
C3017      C3018   1.411       .  A
C3017      C3020   1.451       .  S
C3018      C3022   1.452       .  S
C3019      N3026   1.157       .  T
C3020      N3027   1.157       .  T
C3021      N3025   1.157       .  T
C3022      N3028   1.157       .  T
C3023      N3032   1.157       .  T
C3024      N3030   1.157       .  T
C3033      C3034   1.400       .  A
C3033      C3038   1.414       .  A
C3033      C3051   1.457       .  S
C3034      C3039   1.506       .  S
C3034      C3035   1.403       .  A
C3035      C3036   1.423       .  A
C3035      C3040   1.454       .  S
C3036      C3037   1.450       .  A
C3036      C3052   1.449       .  S
C3037      C3038   1.451       .  A
C3038      C3041   1.451       .  S
C3039      C3042   1.415       .  A
C3039      C3046   1.415       .  A
C3040      N3057   1.157       .  T
C3041      N3059   1.157       .  T
C3042      C3043   1.411       .  A
C3042      C3047   1.451       .  S
C3043      C3044   1.411       .  A
C3043      C3049   1.451       .  S
C3044      C3045   1.411       .  A
C3045      C3046   1.412       .  A
C3045      C3048   1.451       .  S
C3046      C3050   1.450       .  S
C3047      N3054   1.157       .  T
C3048      N3055   1.157       .  T
C3049      N3053   1.157       .  T
C3050      N3056   1.157       .  T
C3051      N3060   1.157       .  T
C3052      N3058   1.158       .  T
C3061      C3062   1.396       .  A
C3061      C3066   1.414       .  A
C3061      C3079   1.460       .  S
C3062      C3067   1.503       .  S
C3062      C3063   1.399       .  A
C3063      C3064   1.421       .  A
C3063      C3068   1.453       .  S
C3064      C3065   1.450       .  A
C3064      C3080   1.449       .  S
C3065      C3066   1.455       .  A
C3066      C3069   1.445       .  S
C3067      C3070   1.414       .  A
C3067      C3074   1.411       .  A
C3068      N3085   1.157       .  T
C3069      N3087   1.156       .  T
C3070      C3071   1.411       .  A
C3070      C3075   1.451       .  S
C3071      C3072   1.413       .  A
C3071      C3077   1.451       .  S
C3072      C3073   1.416       .  A
C3073      C3074   1.412       .  A
C3073      C3076   1.451       .  S
C3074      C3078   1.450       .  S
C3075      N3082   1.157       .  T
C3076      N3083   1.157   1_655  T
C3077      N3081   1.157       .  T
C3078      N3084   1.157       .  T
C3079      N3088   1.157       .  T
C3080      N3086   1.157       .  T
C3089      C3090   1.394       .  A
C3089      C3094   1.416       .  A
C3089      C3107   1.459       .  S
C3090      C3095   1.501       .  S
C3090      C3091   1.398       .  A
C3091      C3092   1.419       .  A
C3091      C3096   1.454       .  S
C3092      C3093   1.449       .  A
C3092      C3108   1.450       .  S
C3093      C3094   1.458       .  A
C3094      C3097   1.449       .  S
C3095      C3098   1.410       .  A
C3095      C3102   1.410       .  A
C3096      N3113   1.157       .  T
C3097      N3115   1.157       .  T
C3098      C3099   1.410       .  A
C3098      C3103   1.452       .  S
C3099      C3100   1.419       .  A
C3099      C3105   1.452       .  S
C3100      C3101   1.416       .  A
C3101      C3102   1.414       .  A
C3101      C3104   1.450       .  S
C3102      C3106   1.450       .  S
C3103      N3110   1.157       .  T
C3104      N3111   1.157       .  T
C3105      N3109   1.157       .  T
C3106      N3112   1.157       .  T
C3107      N3116   1.157       .  T
C3108      N3114   1.157       .  T
C3117      C3118   1.414       .  A
C3117      C3122   1.410       .  A
C3117      C3135   1.451       .  S
C3118      C3123   1.499       .  S
C3118      C3119   1.411       .  A
C3119      C3120   1.412       .  A
C3119      C3124   1.450       .  S
C3120      C3121   1.413       .  A
C3120      C3136   1.451       .  S
C3121      C3122   1.410       .  A
C3122      C3125   1.450       .  S
C3123      C3126   1.399       .  A
C3123      C3130   1.396       .  A
C3124      N3141   1.157       .  T
C3125      N3143   1.157       .  T
C3126      C3127   1.419       .  A
C3126      C3131   1.452       .  S
C3127      C3128   1.452       .  A
C3127      C3133   1.452       .  S
C3128      C3129   1.453       .  A
C3129      C3130   1.411       .  A
C3129      C3132   1.447       .  S
C3130      C3134   1.459       .  S
C3131      N3138   1.157       .  T
C3132      N3139   1.157       .  T
C3133      N3137   1.158       .  T
C3134      N3140   1.157       .  T
C3135      N3144   1.157       .  T
C3136      N3142   1.157       .  T
C3145      C3146   1.411       .  A
C3145      C3150   1.412       .  A
C3145      C3163   1.450       .  S
C3146      C3151   1.507       .  S
C3146      C3147   1.411       .  A
C3147      C3148   1.415       .  A
C3147      C3152   1.451       .  S
C3148      C3149   1.422       .  A
C3148      C3164   1.451       .  S
C3149      C3150   1.420       .  A
C3150      C3153   1.452       .  S
C3151      C3154   1.401       .  A
C3151      C3158   1.401       .  A
C3152      N3169   1.157       .  T
C3153      N3171   1.157       .  T
C3154      C3155   1.423       .  A
C3154      C3159   1.454       .  S
C3155      C3156   1.451       .  A
C3155      C3161   1.448       .  S
C3156      C3157   1.451       .  A
C3157      C3158   1.416       .  A
C3157      C3160   1.452       .  S
C3158      C3162   1.457       .  S
C3159      N3166   1.157       .  T
C3160      N3167   1.157       .  T
C3161      N3165   1.158       .  T
C3162      N3168   1.157       .  T
C3163      N3172   1.157       .  T
C3164      N3170   1.158       .  T
C3173      C3174   1.413       .  A
C3173      C3178   1.410       .  A
C3173      C3191   1.451       .  S
C3174      C3179   1.507       .  S
C3174      C3175   1.414       .  A
C3175      C3176   1.414       .  A
C3175      C3180   1.451       .  S
C3176      C3177   1.416       .  A
C3176      C3192   1.451       .  S
C3177      C3178   1.416       .  A
C3178      C3181   1.453       .  S
C3179      C3182   1.403       .  A
C3179      C3186   1.400       .  A
C3180      N3197   1.157       .  T
C3181      N3199   1.157       .  T
C3182      C3183   1.423       .  A
C3182      C3187   1.455       .  S
C3183      C3184   1.450       .  A
C3183      C3189   1.448       .  S
C3184      C3185   1.451       .  A
C3185      C3186   1.413       .  A
C3185      C3188   1.451       .  S
C3186      C3190   1.457       .  S
C3187      N3194   1.157       .  T
C3188      N3195   1.157       .  T
C3189      N3193   1.158   1_655  T
C3190      N3196   1.157       .  T
C3191      N3200   1.157       .  T
C3192      N3198   1.157       .  T
C3201      C3202   1.413       .  A
C3201      C3206   1.414       .  A
C3201      C3219   1.449       .  S
C3202      C3207   1.507       .  S
C3202      C3203   1.411       .  A
C3203      C3204   1.413       .  A
C3203      C3208   1.451       .  S
C3204      C3205   1.419       .  A
C3204      C3220   1.451       .  S
C3205      C3206   1.417       .  A
C3206      C3209   1.452       .  S
C3207      C3210   1.403       .  A
C3207      C3214   1.398       .  A
C3208      N3225   1.157       .  T
C3209      N3227   1.158       .  T
C3210      C3211   1.423       .  A
C3210      C3215   1.454       .  S
C3211      C3212   1.450       .  A
C3211      C3217   1.449       .  S
C3212      C3213   1.450       .  A
C3213      C3214   1.414       .  A
C3213      C3216   1.450       .  S
C3214      C3218   1.456       .  S
C3215      N3222   1.157       .  T
C3216      N3223   1.157       .  T
C3217      N3221   1.158   1_556  T
C3218      N3224   1.157       .  T
C3219      N3228   1.157       .  T
C3220      N3226   1.157       .  T
C3229      C3230   1.409   1_545  A
C3229      C3234   1.408       .  A
C3229      C3247   1.452       .  S
C3230      C3235   1.498       .  S
C3230      C3231   1.413       .  A
C3231      C3232   1.408       .  A
C3231      C3236   1.452       .  S
C3232      C3233   1.413       .  A
C3232      C3248   1.448       .  S
C3233      C3234   1.421   1_565  A
C3234      C3237   1.452       .  S
C3235      C3238   1.398       .  A
C3235      C3242   1.400   1_565  A
C3236      N3253   1.157       .  T
C3237      N3255   1.158       .  T
C3238      C3239   1.410       .  A
C3238      C3243   1.460       .  S
C3239      C3240   1.454       .  A
C3239      C3245   1.450       .  S
C3240      C3241   1.446   1_565  A
C3241      C3242   1.417       .  A
C3241      C3244   1.450       .  S
C3242      C3246   1.454       .  S
C3243      N3250   1.157       .  T
C3244      N3251   1.157       .  T
C3245      N3249   1.157       .  T
C3246      N3252   1.157       .  T
C3247      N3256   1.157       .  T
C3248      N3254   1.157       .  T
C3257      C3258   1.405       .  A
C3257      C3262   1.407       .  A
C3257      C3275   1.451       .  S
C3258      C3263   1.494       .  S
C3258      C3259   1.409   1_565  A
C3259      C3260   1.410       .  A
C3259      C3264   1.450       .  S
C3260      C3261   1.418   1_545  A
C3260      C3276   1.449       .  S
C3261      C3262   1.423       .  A
C3262      C3265   1.452       .  S
C3263      C3266   1.398       .  A
C3263      C3270   1.396       .  A
C3264      N3281   1.157       .  T
C3265      N3283   1.157       .  T
C3266      C3267   1.410       .  A
C3266      C3271   1.458       .  S
C3267      C3268   1.451       .  A
C3267      C3273   1.452       .  S
C3268      C3269   1.454       .  A
C3269      C3270   1.419       .  A
C3269      C3272   1.448       .  S
C3270      C3274   1.455       .  S
C3271      N3278   1.157       .  T
C3272      N3279   1.158       .  T
C3273      N3277   1.157       .  T
C3274      N3280   1.157       .  T
C3275      N3284   1.157       .  T
C3276      N3282   1.157       .  T
C3285      C3286   1.413       .  A
C3285      C3290   1.409       .  A
C3285      C3303   1.451       .  S
C3286      C3291   1.496       .  S
C3286      C3287   1.411       .  A
C3287      C3288   1.409       .  A
C3287      C3292   1.451       .  S
C3288      C3289   1.412       .  A
C3288      C3304   1.451       .  S
C3289      C3290   1.410       .  A
C3290      C3293   1.451       .  S
C3291      C3294   1.394       .  A
C3291      C3298   1.395       .  A
C3292      N3309   1.157       .  T
C3293      N3311   1.157       .  T
C3294      C3295   1.415       .  A
C3294      C3299   1.460       .  S
C3295      C3296   1.458       .  A
C3295      C3301   1.447       .  S
C3296      C3297   1.451       .  A
C3297      C3298   1.418       .  A
C3297      C3300   1.449       .  S
C3298      C3302   1.455       .  S
C3299      N3306   1.157       .  T
C3300      N3307   1.157       .  T
C3301      N3305   1.156       .  T
C3302      N3308   1.157       .  T
C3303      N3312   1.157       .  T
C3304      N3310   1.157       .  T
C3313      C3314   1.412       .  A
C3313      C3318   1.414       .  A
C3313      C3331   1.448       .  S
C3314      C3319   1.504       .  S
C3314      C3315   1.408       .  A
C3315      C3316   1.412       .  A
C3315      C3320   1.452       .  S
C3316      C3317   1.423       .  A
C3316      C3332   1.452       .  S
C3317      C3318   1.418       .  A
C3318      C3321   1.452       .  S
C3319      C3322   1.401       .  A
C3319      C3326   1.398       .  A
C3320      N3337   1.157       .  T
C3321      N3339   1.158       .  T
C3322      C3323   1.424       .  A
C3322      C3327   1.454       .  S
C3323      C3324   1.452       .  A
C3323      C3329   1.449       .  S
C3324      C3325   1.452       .  A
C3325      C3326   1.414       .  A
C3325      C3328   1.451       .  S
C3326      C3330   1.457       .  S
C3327      N3334   1.157       .  T
C3328      N3335   1.157       .  T
C3329      N3333   1.158       .  T
C3330      N3336   1.157       .  T
C3331      N3340   1.157       .  T
C3332      N3338   1.157       .  T
C3341      C3342   1.411       .  A
C3341      C3346   1.411       .  A
C3341      C3359   1.452       .  S
C3342      C3347   1.499       .  S
C3342      C3343   1.410       .  A
C3343      C3344   1.413       .  A
C3343      C3348   1.450       .  S
C3344      C3345   1.417       .  A
C3344      C3360   1.450       .  S
C3345      C3346   1.417       .  A
C3346      C3349   1.451       .  S
C3347      C3350   1.397       .  A
C3347      C3354   1.398       .  A
C3348      N3365   1.157       .  T
C3349      N3367   1.157       .  T
C3350      C3351   1.413       .  A
C3350      C3355   1.457       .  S
C3351      C3352   1.452       .  A
C3351      C3357   1.448       .  S
C3352      C3353   1.452       .  A
C3353      C3354   1.416       .  A
C3353      C3356   1.453       .  S
C3354      C3358   1.452       .  S
C3355      N3362   1.157       .  T
C3356      N3363   1.158       .  T
C3357      N3361   1.158       .  T
C3358      N3364   1.157       .  T
C3359      N3368   1.157       .  T
C3360      N3366   1.157       .  T
C3369      C3370   1.411       .  A
C3369      C3374   1.417       .  A
C3369      C3387   1.450       .  S
C3370      C3375   1.512       .  S
C3370      C3371   1.413       .  A
C3371      C3372   1.416       .  A
C3371      C3376   1.450       .  S
C3372      C3373   1.418       .  A
C3372      C3388   1.451       .  S
C3373      C3374   1.419       .  A
C3374      C3377   1.450       .  S
C3375      C3378   1.398       .  A
C3375      C3382   1.397       .  A
C3376      N3393   1.157       .  T
C3377      N3395   1.157       .  T
C3378      C3379   1.422       .  A
C3378      C3383   1.454       .  S
C3379      C3380   1.451       .  A
C3379      C3385   1.449       .  S
C3380      C3381   1.460       .  A
C3381      C3382   1.424       .  A
C3381      C3384   1.449       .  S
C3382      C3386   1.457       .  S
C3383      N3390   1.157       .  T
C3384      N3391   1.158       .  T
C3385      N3389   1.157       .  T
C3386      N3392   1.157       .  T
C3387      N3396   1.157       .  T
C3388      N3394   1.158       .  T
C3397      C3398   1.409       .  A
C3397      C3402   1.408       .  A
C3397      C3415   1.450       .  S
C3398      C3403   1.498       .  S
C3398      C3399   1.411       .  A
C3399      C3400   1.412       .  A
C3399      C3404   1.451       .  S
C3400      C3401   1.417       .  A
C3400      C3416   1.451       .  S
C3401      C3402   1.419       .  A
C3402      C3405   1.453       .  S
C3403      C3406   1.401       .  A
C3403      C3410   1.396       .  A
C3404      N3421   1.157       .  T
C3405      N3423   1.158       .  T
C3406      C3407   1.422       .  A
C3406      C3411   1.454       .  S
C3407      C3408   1.450       .  A
C3407      C3413   1.449       .  S
C3408      C3409   1.451       .  A
C3409      C3410   1.408       .  A
C3409      C3412   1.451       .  S
C3410      C3414   1.458       .  S
C3411      N3418   1.157       .  T
C3412      N3419   1.157       .  T
C3413      N3417   1.158   1_565  T
C3414      N3420   1.157       .  T
C3415      N3424   1.157       .  T
C3416      N3422   1.157       .  T
C3425      C3426   1.411       .  A
C3425      C3430   1.414       .  A
C3425      C3443   1.451       .  S
C3426      C3431   1.504       .  S
C3426      C3427   1.413       .  A
C3427      C3428   1.411       .  A
C3427      C3432   1.448       .  S
C3428      C3429   1.414       .  A
C3428      C3444   1.452       .  S
C3429      C3430   1.419       .  A
C3430      C3433   1.451       .  S
C3431      C3434   1.402       .  A
C3431      C3438   1.397       .  A
C3432      N3449   1.157       .  T
C3433      N3451   1.157       .  T
C3434      C3435   1.424       .  A
C3434      C3439   1.453       .  S
C3435      C3436   1.450       .  A
C3435      C3441   1.449       .  S
C3436      C3437   1.452       .  A
C3437      C3438   1.411       .  A
C3437      C3440   1.451       .  S
C3438      C3442   1.457       .  S
C3439      N3446   1.157       .  T
C3440      N3447   1.157       .  T
C3441      N3445   1.158   1_556  T
C3442      N3448   1.157       .  T
C3443      N3452   1.157       .  T
C3444      N3450   1.157       .  T
C3453      C3454   1.416       .  A
C3453      C3458   1.412       .  A
C3453      C3471   1.452       .  S
C3454      C3459   1.512       .  S
C3454      C3455   1.417       .  A
C3455      C3456   1.416       .  A
C3455      C3460   1.450       .  S
C3456      C3457   1.415       .  A
C3456      C3472   1.451       .  S
C3457      C3458   1.416       .  A
C3458      C3461   1.452       .  S
C3459      C3462   1.409       .  A
C3459      C3466   1.405       .  A
C3460      N3477   1.157       .  T
C3461      N3479   1.157       .  T
C3462      C3463   1.425       .  A
C3462      C3467   1.452       .  S
C3463      C3464   1.444       .  A
C3463      C3469   1.448       .  S
C3464      C3465   1.438       .  A
C3465      C3466   1.408       .  A
C3465      C3468   1.445       .  S
C3466      C3470   1.454       .  S
C3467      N3474   1.157       .  T
C3468      N3475   1.156       .  T
C3469      N3473   1.157       .  T
C3470      N3476   1.157       .  T
C3471      N3480   1.157       .  T
C3472      N3478   1.157       .  T
