geometry optimzed in LAMMPS
_audit_creation_date              2020-11-30 
_audit_creation_method            'lammps2cif' 
_symmetry_space_group_name_H-M    'P1' 
_symmetry_Int_Tables_number       1 
_symmetry_cell_setting            triclinic 
loop_ 
_symmetry_equiv_pos_as_xyz 
  x,y,z 
_cell_length_a                    40.26300979769317 
_cell_length_b                    40.30610782184868 
_cell_length_c                    40.099141898646955 
_cell_angle_alpha                 89.22965192308662 
_cell_angle_beta                  89.72866047779453 
_cell_angle_gamma                 89.76080596454791 
loop_ 
_atom_site_label 
_atom_site_type_symbol 
_atom_site_fract_x 
_atom_site_fract_y 
_atom_site_fract_z 
_atom_site_charge 
O1          O  0.72178679  0.75947842  0.80472142    -0.86980
C2          C  0.73471062  0.67636295  0.75125781     0.89050
Mg3        Mg  0.69754664  0.80187964  0.78454296     1.58150
O4          O  0.80684465  0.72343969  0.76023155    -0.86710
O5          O  0.77071613  0.74673321  0.82538131    -0.74040
C6          C  0.76205753  0.82033041  0.63222685     0.94100
O7          O  0.67583135  0.72872262  0.74825100    -0.73850
O8          O  0.73876790  0.83110138  0.65080041    -0.81360
Mg9        Mg  0.69700251  0.71312165  0.79937905     1.57960
C10         C  0.86824560  0.74323079  0.68175308     0.94020
O11         O  0.71440274  0.69704397  0.85262743    -0.79620
H12         H  0.83961313  0.74611451  0.78947439    -0.04960
C13         C  0.75657812  0.73692805  0.67392820     0.88960
O14         O  0.74811739  0.82550870  0.77195407    -0.74130
O15         O  0.74004614  0.69447732  0.77532449    -0.86890
O16         O  0.85655212  0.71900340  0.69880321    -0.79700
C17         C  0.81856401  0.63424393  0.75727167     0.94140
C18         C  0.73845617  0.68013277  0.86468979     0.93990
Mg19       Mg  0.80466956  0.78829650  0.69733134     1.57950
O20         O  0.78607886  0.80331122  0.64419054    -0.79630
O21         O  0.82677197  0.77299306  0.74827475    -0.73870
O22         O  0.80139844  0.64536664  0.78155723    -0.79710
O23         O  0.64891660  0.73088365  0.82122700    -0.81420
O24         O  0.69933275  0.85734248  0.71512981    -0.79740
C25         C  0.82518616  0.74709655  0.76678569     0.88430
O26         O  0.76218521  0.80810110  0.72219691    -0.86880
O27         O  0.77952071  0.74220601  0.69355999    -0.86990
O28         O  0.73135459  0.75592758  0.67198130    -0.74040
Mg29       Mg  0.78555529  0.69720439  0.80163380     1.57970
O30         O  0.82740751  0.65245497  0.73270576    -0.81420
H31         H  0.74374361  0.78689374  0.83945988    -0.05140
O32         O  0.69521288  0.77860805  0.73712319    -0.86690
H33         H  0.66318891  0.75583207  0.70716314    -0.04970
H34         H  0.78966028  0.84052233  0.74726532    -0.05140
C35         C  0.67727958  0.75481846  0.73007467     0.88410
C36         C  0.74495453  0.76507013  0.82404281     0.88990
C37         C  0.76744226  0.82555449  0.74676923     0.89040
H38         H  0.75761958  0.71504743  0.65857024    -0.05120
O39         O  0.75378338  0.67595184  0.72591065    -0.74150
Mg40       Mg  0.71659889  0.80554237  0.69586484     1.58000
H41         H  0.71257667  0.66128089  0.75130966    -0.05140
C42         C  0.63225870  0.75694043  0.81466189     0.94030
O43         O  0.67445719  0.84823892  0.76404291    -0.81380
C44         C  0.68132533  0.86720322  0.73935393     0.94090
O45         O  0.76391947  0.67255039  0.84741304    -0.81360
Mg46       Mg  0.80417704  0.69956078  0.71320360     1.58180
O47         O  0.64512392  0.78219965  0.80000938    -0.79700
O48         O  0.85092962  0.76845091  0.67371977    -0.81390
C49         C  0.62475384  0.00230910  0.75171677    -0.01120
O50         O  0.78987070  0.28691463  0.78497070    -0.86980
C51         C  0.79494201  0.26733623  0.68724584     0.89050
Mg52       Mg  0.79286735  0.24888489  0.82167004     1.58150
O53         O  0.71516453  0.28599834  0.71545581    -0.86710
O54         O  0.75355723  0.32516765  0.77035516    -0.74040
C55         C  0.69263360  0.13005700  0.76943235     0.94100
O56         O  0.83074928  0.23043938  0.74737702    -0.73850
O57         O  0.71861774  0.13329102  0.78697369    -0.81360
Mg58       Mg  0.82752956  0.28743959  0.74738528     1.57960
C59         C  0.63298942  0.23337675  0.69072897     0.94020
O60         O  0.82822881  0.34497334  0.74731980    -0.79620
H61         H  0.68357498  0.31726082  0.73758275    -0.04960
C62         C  0.73578594  0.18806956  0.70681098     0.88960
O63         O  0.73595041  0.24824512  0.82603192    -0.74130
O64         O  0.78944465  0.28608633  0.71093437    -0.86890
O65         O  0.65690744  0.24959155  0.67718028    -0.79700
C66         C  0.73554459  0.31304866  0.63135266     0.94140
C67         C  0.81386753  0.36966967  0.73315720     0.93990
Mg68       Mg  0.68023672  0.21201489  0.75188079     1.57950
O69         O  0.67917936  0.15477299  0.75434991    -0.79630
O70         O  0.67678689  0.26894589  0.75064788    -0.73870
O71         O  0.75074215  0.32620011  0.65566618    -0.79710
O72         O  0.86954855  0.28588643  0.78482195    -0.81420
O73         O  0.75841907  0.17353424  0.84303928    -0.79740
C74         C  0.69141821  0.29182808  0.73422796     0.88430
O75         O  0.71856401  0.21365960  0.78803502    -0.86880
O76         O  0.71751211  0.21178512  0.71379367    -0.86990
O77         O  0.75301716  0.17296397  0.72878478    -0.74040
Mg78       Mg  0.75180957  0.32382743  0.71326201     1.57970
O79         O  0.71600273  0.28852820  0.63519204    -0.81420
H80         H  0.76830861  0.31690745  0.81805280    -0.05140
O81         O  0.79254734  0.21301584  0.78265944    -0.86690
H82         H  0.82358262  0.18192386  0.75949505    -0.04970
H83         H  0.68766180  0.23552304  0.82021629    -0.05140
C84         C  0.81602231  0.20736328  0.76346597     0.88410
C85         C  0.77102163  0.31012925  0.79218267     0.88990
C86         C  0.71299339  0.23210551  0.81190873     0.89040
H87         H  0.73809630  0.18077058  0.68103831    -0.05120
O88         O  0.77199594  0.25100633  0.67325133    -0.74150
Mg89       Mg  0.75585414  0.17533834  0.78588293     1.58000
H90         H  0.82028506  0.26377919  0.67899483    -0.05140
C91         C  0.87406511  0.26526340  0.80870480     0.94030
O92         O  0.79296955  0.21121655  0.86332065    -0.81380
C93         C  0.77377655  0.18657667  0.86727833     0.94090
O94         O  0.78853100  0.36632802  0.71466480    -0.81360
Mg95       Mg  0.71498991  0.24999345  0.67684363     1.58180
O96         O  0.85035913  0.24856993  0.82166224    -0.79700
O97         O  0.63793806  0.21273344  0.71456096    -0.81390
C98         C  0.87633697  0.50051192  0.75055139    -0.01120
C99         C  0.74488936  0.86894588  0.49610156    -0.01120
O100        O  0.69366312  0.71964421  0.23785048    -0.86980
C101        C  0.74539743  0.73163197  0.32275072     0.89050
Mg102      Mg  0.71508282  0.69489841  0.19666038     1.58150
O103        O  0.74018010  0.80305744  0.27261356    -0.86710
O104        O  0.67481684  0.76972173  0.24753785    -0.74040
C105        C  0.86938414  0.75193954  0.18139718     0.94100
O106        O  0.74713494  0.67148267  0.27209585    -0.73850
O107        O  0.85269957  0.72603205  0.17535466    -0.81360
Mg108      Mg  0.69675107  0.69497298  0.28538665     1.57960
C109        C  0.81988200  0.86249870  0.25466498     0.94020
O110        O  0.64373022  0.71384852  0.30128394    -0.79620
H111        H  0.71280158  0.83669566  0.24789925    -0.04960
C112        C  0.82479521  0.74980000  0.26573842     0.88960
O113        O  0.73023245  0.74456465  0.17257744    -0.74130
O114        O  0.72194865  0.73728558  0.30356773    -0.86890
O115        O  0.80173733  0.85199829  0.27868999    -0.79700
C116        C  0.73941537  0.81630498  0.36149060     0.94140
C117        C  0.63300730  0.73936016  0.31658153     0.93990
Mg118      Mg  0.80458590  0.79779166  0.21063004     1.57950
O119        O  0.85651413  0.77720339  0.19555842    -0.79630
O120        O  0.75419396  0.82198936  0.22299180    -0.73870
O121        O  0.71580860  0.79916393  0.34973688    -0.79710
O122        O  0.67394193  0.64825584  0.26681854    -0.81420
O123        O  0.78717544  0.69207102  0.14462010    -0.79740
C124        C  0.73491537  0.82142768  0.24820638     0.88430
O125        O  0.78013751  0.75576171  0.19121496    -0.86880
O126        O  0.80685350  0.77377282  0.25826125    -0.86990
O127        O  0.82593660  0.72372749  0.24823517    -0.74040
Mg128      Mg  0.69760671  0.78382805  0.29755536     1.57970
O129        O  0.76446245  0.82493330  0.34412470    -0.81420
H130        H  0.66059773  0.74223806  0.20809495    -0.05140
O131        O  0.76097598  0.69075930  0.22249592    -0.86690
H132        H  0.78840399  0.65694804  0.24691777    -0.04970
H133        H  0.75735756  0.78416187  0.15700815    -0.05140
C134        C  0.76625863  0.67221401  0.24677567     0.88410
C135        C  0.67542375  0.74339274  0.23049810     0.88990
C136        C  0.75637978  0.76215425  0.17265911     0.89040
H137        H  0.83908410  0.75060299  0.28849960    -0.05120
O138        O  0.77083009  0.75024239  0.32369391    -0.74150
Mg139      Mg  0.80441362  0.70865810  0.19762116     1.58000
H140        H  0.74466092  0.70967154  0.33851209    -0.05140
C141        C  0.68195397  0.63134480  0.24149309     0.94030
O142        O  0.73643549  0.67122425  0.15133116    -0.81380
C143        C  0.76220828  0.67629754  0.13352817     0.94090
O144        O  0.65130215  0.76455750  0.32077406    -0.81360
Mg145      Mg  0.78569081  0.80002433  0.29909019     1.58180
O146        O  0.69816958  0.64349439  0.21681112    -0.79700
O147        O  0.82807579  0.84406203  0.23038522    -0.81390
C148        C  0.74906163  0.62035223  0.99839117    -0.01120
C149        C  0.49794682  0.75286712  0.37480981    -0.01120
C150        C  0.12604992  0.00083456  0.74859212    -0.01120
C151        C  0.74990566  0.12684560  0.99885634    -0.01120
C152        C  0.37544360  0.50025321  0.74908223    -0.01120
C153        C  0.75097188  0.37477556  0.49807264    -0.01120
C154        C  0.62697677  0.49700015  0.24808789    -0.01120
C155        C  0.25078611  0.62658249  0.50192384    -0.01120
C156        C  0.00318075  0.75196442  0.12095872    -0.01120
O157        O  0.28545162  0.78830492  0.28464402    -0.86980
C158        C  0.29154046  0.76603423  0.18741645     0.89050
Mg159      Mg  0.28892867  0.75145115  0.32293200     1.58150
O160        O  0.21181921  0.78632572  0.21490338    -0.86710
O161        O  0.25029200  0.82699512  0.26860401    -0.74040
C162        C  0.18622616  0.63331749  0.27314023     0.94100
O163        O  0.32568798  0.73008000  0.24895713    -0.73850
O164        O  0.21159348  0.63624380  0.29176211    -0.81360
Mg165      Mg  0.32312392  0.78719448  0.24638638     1.57960
C166        C  0.13065747  0.73438286  0.19068767     0.94020
O167        O  0.32450230  0.84420907  0.24401305    -0.79620
H168        H  0.18106442  0.81913301  0.23587770    -0.04960
C169        C  0.23134618  0.68778129  0.21100017     0.88960
O170        O  0.23202605  0.75057236  0.32871861    -0.74130
O171        O  0.28529788  0.78516048  0.21053549    -0.86890
O172        O  0.15598892  0.74782234  0.17705280    -0.79700
C173        C  0.23180475  0.81034967  0.13011381     0.94140
C174        C  0.31094950  0.86904222  0.22937812     0.93990
Mg175      Mg  0.17559619  0.71496657  0.25448572     1.57950
O176        O  0.17319104  0.65804957  0.25780839    -0.79630
O177        O  0.17369148  0.77167646  0.25149679    -0.73870
O178        O  0.24609934  0.82429942  0.15451426    -0.79710
O179        O  0.36565227  0.78748215  0.28226840    -0.81420
O180        O  0.25288016  0.67721712  0.34890137    -0.79740
C181        C  0.18835565  0.79340803  0.23360534     0.88430
O182        O  0.21385067  0.71629438  0.29099697    -0.86880
O183        O  0.21383205  0.71235141  0.21689251    -0.86990
O184        O  0.24786101  0.67293485  0.23368321    -0.74040
Mg185      Mg  0.24837624  0.82367484  0.21156591     1.57970
O186        O  0.21388240  0.78464667  0.13403745    -0.81420
H187        H  0.26442597  0.81978400  0.31667277    -0.05140
O188        O  0.28816339  0.71405234  0.28572091    -0.86690
H189        H  0.31863285  0.68205836  0.26307623    -0.04970
H190        H  0.18349585  0.73829524  0.32361836    -0.05140
C191        C  0.31122792  0.70764756  0.26624596     0.88410
C192        C  0.26711489  0.81213377  0.29103864     0.88990
C193        C  0.20867989  0.73477299  0.31487965     0.89040
H194        H  0.23363574  0.67945509  0.18556865    -0.05120
O195        O  0.26919695  0.74861503  0.17400019    -0.74150
Mg196      Mg  0.25029642  0.67724762  0.29061648     1.58000
H197        H  0.31703561  0.76287182  0.17950926    -0.05140
C198        C  0.36979323  0.76923175  0.30792527     0.94030
O199        O  0.29122458  0.71343687  0.36512429    -0.81380
C200        C  0.27107736  0.68991629  0.37143121     0.94090
O201        O  0.28560577  0.86587290  0.21086348    -0.81360
Mg202      Mg  0.21259423  0.74830663  0.17778238     1.58180
O203        O  0.34583785  0.75362580  0.32186076    -0.79700
O204        O  0.13308333  0.71640543  0.21695791    -0.81390
C205        C  0.24962598  0.87600357  0.99953684    -0.01120
C206        C  0.50316926  0.24885434  0.62649565    -0.01120
O207        O  0.29249802  0.21240093  0.71830088    -0.86980
C208        C  0.27059540  0.30931603  0.70490837     0.89050
Mg209      Mg  0.25571743  0.17478019  0.71647159     1.58150
O210        O  0.28749160  0.28621181  0.78739757    -0.86710
O211        O  0.32998121  0.23056366  0.75310892    -0.74040
C212        C  0.13235745  0.23385661  0.80943023     0.94100
O213        O  0.23683392  0.24616905  0.67272465    -0.73850
O214        O  0.13546795  0.21456229  0.78468021    -0.81360
Mg215      Mg  0.29376646  0.24731454  0.67784616     1.57960
C216        C  0.23091607  0.31336348  0.86541700     0.94020
O217        O  0.35140981  0.24801306  0.67973853    -0.79620
H218        H  0.31856102  0.26513288  0.82021826    -0.04960
C219        C  0.19024543  0.29150244  0.76312266     0.88960
O220        O  0.25262902  0.17288078  0.77345359    -0.74130
O221        O  0.28956702  0.28632916  0.71294189    -0.86890
O222        O  0.24592909  0.32676862  0.84061394    -0.79700
C223        C  0.31178774  0.36966570  0.76431241     0.94140
C224        C  0.37489331  0.26481220  0.69254173     0.93990
Mg225      Mg  0.21390592  0.24947964  0.82205670     1.57950
O226        O  0.15727467  0.24819163  0.82227809    -0.79630
O227        O  0.27059505  0.25104143  0.82615663    -0.73870
O228        O  0.32642258  0.34503360  0.75076335    -0.79710
O229        O  0.29513196  0.20758745  0.63799457    -0.81420
O230        O  0.17761275  0.15508811  0.74856744    -0.79740
C231        C  0.29322913  0.26792666  0.81178519     0.88430
O232        O  0.21651945  0.21165617  0.78630111    -0.86880
O233        O  0.21365019  0.28548017  0.78217810    -0.86990
O234        O  0.17595634  0.26882043  0.74694538    -0.74040
Mg235      Mg  0.32617895  0.28759975  0.75137331     1.57970
O236        O  0.28562767  0.36621730  0.78187406    -0.81420
H237        H  0.32351873  0.18185500  0.74273290    -0.05140
O238        O  0.21843666  0.21297089  0.71261346    -0.86690
H239        H  0.18833305  0.23388623  0.67876549    -0.04970
H240        H  0.23628662  0.18106145  0.82055357    -0.05140
C241        C  0.21346527  0.23068368  0.68761154     0.88410
C242        C  0.31572520  0.20716356  0.73782439     0.88990
C243        C  0.23461910  0.18803010  0.79448700     0.89040
H244        H  0.18264234  0.31698492  0.75908498    -0.05120
O245        O  0.25282251  0.32442417  0.72621616    -0.74150
Mg246      Mg  0.17910256  0.21213860  0.74815473     1.58000
H247        H  0.26816811  0.31593999  0.67881496    -0.05140
C248        C  0.27356800  0.18491818  0.63419653     0.94030
O249        O  0.21847833  0.13299807  0.71807873    -0.81380
C250        C  0.19205198  0.13021804  0.73538040     0.94090
O251        O  0.36925049  0.28651081  0.71468819    -0.81360
Mg252      Mg  0.24944551  0.32359326  0.78342061     1.58180
O253        O  0.25754593  0.17297292  0.65908631    -0.79700
O254        O  0.21319823  0.28757809  0.86250894    -0.81390
C255        C  0.00355019  0.25361118  0.87643234    -0.01120
O256        O  0.78503359  0.20857145  0.21330803    -0.86980
C257        C  0.68705485  0.20543551  0.23591831     0.89050
Mg258      Mg  0.82257232  0.20556790  0.25105389     1.58150
O259        O  0.71660322  0.28421837  0.21367525    -0.86710
O260        O  0.76915484  0.24257587  0.17317582    -0.74040
C261        C  0.76887402  0.30873592  0.36864436     0.94100
O262        O  0.74816596  0.16900293  0.27175117    -0.73850
O263        O  0.78618167  0.28233128  0.36609915    -0.81360
Mg264      Mg  0.74692800  0.17168927  0.21436253     1.57960
C265        C  0.69283296  0.36740124  0.26434154     0.94020
O266        O  0.74510106  0.17089815  0.15570598    -0.79620
H267        H  0.73973524  0.31363348  0.18050592    -0.04960
C268        C  0.70828280  0.26550797  0.31240725     0.88960
O269        O  0.82728448  0.26233651  0.25054061    -0.74130
O270        O  0.71052637  0.21020416  0.21639576    -0.86890
O271        O  0.67870113  0.34275232  0.25082596    -0.79700
C272        C  0.63178562  0.26783896  0.18922220     0.94140
C273        C  0.72806638  0.18399544  0.13194010     0.93990
Mg274      Mg  0.75407028  0.32011856  0.28568419     1.57950
O275        O  0.75529319  0.32269882  0.34331490    -0.79630
O276        O  0.75318872  0.32145954  0.22843616    -0.73870
O277        O  0.65544321  0.25115059  0.17643060    -0.79710
O278        O  0.78432872  0.12914186  0.21581972    -0.81420
O279        O  0.84352894  0.24077726  0.32543808    -0.79740
C280        C  0.73614995  0.30687359  0.20644565     0.88430
O281        O  0.78928877  0.28085312  0.28524413    -0.86880
O282        O  0.71554892  0.28334333  0.28809256    -0.86990
O283        O  0.72979876  0.24776851  0.32746186    -0.74040
Mg284      Mg  0.71211415  0.24663899  0.17719288     1.57970
O285        O  0.63628453  0.28660318  0.21399390    -0.81420
H286        H  0.81703024  0.22832984  0.18040224    -0.05140
O287        O  0.78367983  0.20682905  0.28772782    -0.86690
H288        H  0.76097641  0.17612142  0.32001840    -0.04970
H289        H  0.82192850  0.31082403  0.26241730    -0.05140
C290        C  0.76457955  0.18358852  0.29426260     0.88410
C291        C  0.79152513  0.22618643  0.18860721     0.88990
C292        C  0.81333173  0.28571361  0.26643264     0.89040
H293        H  0.68258995  0.26386008  0.32014026    -0.05120
O294        O  0.67346106  0.22896516  0.25188926    -0.74150
Mg295      Mg  0.78647941  0.24420721  0.32455543     1.58000
H296        H  0.67858298  0.18032818  0.24037478    -0.05140
C297        C  0.80834998  0.12438985  0.23597236     0.94030
O298        O  0.86515282  0.20559691  0.28908439    -0.81380
C299        C  0.86854864  0.22544359  0.31331045     0.94090
O300        O  0.70842417  0.20819858  0.13681470    -0.81360
Mg301      Mg  0.67828546  0.28580661  0.25115366     1.58180
O302        O  0.82176802  0.14800160  0.25192761    -0.79700
O303        O  0.71835509  0.36397013  0.28271212    -0.81390
C304        C  0.88090483  0.99656850  0.24835127    -0.01120
C305        C  0.99909144  0.25138235  0.37628371    -0.01120
O306        O  0.30536749  0.22689867  0.25968701    -0.86980
C307        C  0.25359561  0.23738848  0.17419710     0.89050
Mg308      Mg  0.28529002  0.20158302  0.30177336     1.58150
O309        O  0.25920661  0.30982692  0.22096322    -0.86710
O310        O  0.32503191  0.27611235  0.24674589    -0.74040
C311        C  0.13253213  0.26286349  0.31819111     0.94100
O312        O  0.25229162  0.17792315  0.22788989    -0.73850
O313        O  0.15060148  0.23822125  0.32669402    -0.81360
Mg314      Mg  0.30240607  0.20169909  0.21358258     1.57960
C315        C  0.17908324  0.36862336  0.23806058     0.94020
O316        O  0.35390972  0.22140602  0.19789531    -0.79620
H317        H  0.28662656  0.34391362  0.24379051    -0.04960
C318        C  0.17429860  0.25678516  0.23251542     0.88960
O319        O  0.27077417  0.25172942  0.32477242    -0.74130
O320        O  0.27699064  0.24364859  0.19298617    -0.86890
O321        O  0.19647561  0.35735835  0.21406803    -0.79700
C322        C  0.25831133  0.32230424  0.13139039     0.94140
C323        C  0.36540979  0.24532029  0.18032606     0.93990
Mg324      Mg  0.19569594  0.30575314  0.28410827     1.57950
O325        O  0.14351425  0.28643032  0.29980711    -0.79630
O326        O  0.24567543  0.32968696  0.26991043    -0.73870
O327        O  0.28294936  0.30689930  0.14423153    -0.79710
O328        O  0.32736898  0.15566830  0.23422150    -0.81420
O329        O  0.21673118  0.20323546  0.35453234    -0.79740
C330        C  0.26461722  0.32863598  0.24446919     0.88430
O331        O  0.22154709  0.26429073  0.30478341    -0.86880
O332        O  0.19302896  0.28034783  0.23803054    -0.86990
O333        O  0.17301308  0.23145981  0.25173531    -0.74040
Mg334      Mg  0.30176636  0.29037513  0.19624199     1.57970
O335        O  0.23245685  0.32935745  0.14824814    -0.81420
H336        H  0.33891341  0.24972249  0.28788694    -0.05140
O337        O  0.23894666  0.19811276  0.27673484    -0.86690
H338        H  0.21121070  0.16414185  0.25408867    -0.04970
H339        H  0.24444563  0.29257746  0.33820589    -0.05140
C340        C  0.23333077  0.17926396  0.25331243     0.88410
C341        C  0.32393953  0.25048710  0.26555189     0.88990
C342        C  0.24518286  0.27031857  0.32337066     0.89040
H343        H  0.15925605  0.25735145  0.21021919    -0.05120
O344        O  0.22774184  0.25555903  0.17276995    -0.74150
Mg345      Mg  0.19679015  0.21799086  0.30221663     1.58000
H346        H  0.25470680  0.21517028  0.15936454    -0.05140
C347        C  0.31886276  0.13802540  0.25931185     0.94030
O348        O  0.26522965  0.17719980  0.34763878    -0.81380
C349        C  0.24073489  0.18568673  0.36567957     0.94090
O350        O  0.34797150  0.27041700  0.17199561    -0.81360
Mg351      Mg  0.21287881  0.30555652  0.19545920     1.58180
O352        O  0.30125007  0.14953465  0.28302482    -0.79700
O353        O  0.17094211  0.35103971  0.26325355    -0.81390
C354        C  0.25155391  0.37549570  0.99474037    -0.01120
C355        C  0.37042953  0.00047367  0.25373240    -0.01120
O356        O  0.98563867  0.97430427  0.55936411    -0.86980
C357        C  0.06890527  0.98205117  0.50224207     0.89050
Mg358      Mg  0.94203701  0.94943931  0.54288042     1.58150
O359        O  0.02390156  0.05602926  0.51018121    -0.86710
O360        O  0.00100271  0.02307746  0.57734601    -0.74040
C361        C  0.92380341  0.00999523  0.38741275     0.94100
O362        O  0.01443610  0.92424073  0.50547181    -0.73850
O363        O  0.91475552  0.98554576  0.40583407    -0.81360
Mg364      Mg  0.03125904  0.94828830  0.55424635     1.57960
C365        C  0.00195564  0.11600625  0.43221158     0.94020
O366        O  0.04966526  0.96711085  0.60507881    -0.79620
H367        H  0.00227484  0.08955909  0.53962611    -0.04960
C368        C  0.00776752  0.00324809  0.42696322     0.88960
O369        O  0.91901048  0.99986483  0.52820458    -0.74130
O370        O  0.05131259  0.98895581  0.52658217    -0.86890
O371        O  0.02745494  0.10289415  0.44595710    -0.79700
C372        C  0.11318532  0.06658377  0.50470506     0.94140
C373        C  0.06872035  0.99014836  0.61470695     0.93990
Mg374      Mg  0.95670747  0.05323357  0.45123282     1.57950
O375        O  0.93974215  0.03442201  0.39931661    -0.79630
O376        O  0.97368159  0.07566173  0.50070807    -0.73870
O377        O  0.10260465  0.04979104  0.52971624    -0.79710
O378        O  0.01150139  0.90448416  0.58144873    -0.81420
O379        O  0.88839820  0.94943464  0.47529588    -0.79740
C380        C  0.00044260  0.07462592  0.51747684     0.88430
O381        O  0.93724181  0.01143243  0.47760355    -0.86880
O382        O  0.00291784  0.02726692  0.44532855    -0.86990
O383        O  0.98885931  0.97805317  0.42740646    -0.74040
Mg384      Mg  0.05061365  0.03537391  0.55116942     1.57970
O385        O  0.09457333  0.07338986  0.47989097    -0.81420
H386        H  0.95972044  0.99903332  0.59376541    -0.05140
O387        O  0.96494324  0.94468414  0.49479823    -0.86690
H388        H  0.98615899  0.90998004  0.46644758    -0.04970
H389        H  0.90461870  0.04041155  0.50132317    -0.05140
C390        C  0.98804475  0.92546089  0.48819472     0.88410
C391        C  0.98131895  0.99846149  0.57765626     0.88990
C392        C  0.91943147  0.01797426  0.50195474     0.89040
H393        H  0.02936758  0.00320115  0.41090420    -0.05120
O394        O  0.06951906  0.00025923  0.47612616    -0.74150
Mg395      Mg  0.93931516  0.96501529  0.45294517     1.58000
H396        H  0.08337092  0.95938536  0.50281219    -0.05140
C397        C  0.98765274  0.88547844  0.57435776     0.94030
O398        O  0.89323896  0.92724802  0.52644006    -0.81380
C399        C  0.87604759  0.93429743  0.50069901     0.94090
O400        O  0.07640656  0.01450724  0.59584196    -0.81360
Mg401      Mg  0.04663367  0.05092768  0.46231140     1.58180
O402        O  0.96219872  0.89642511  0.55858070    -0.79700
O403        O  0.97545887  0.09993561  0.42704808    -0.81390
O404        O  0.96451254  0.03536676  0.03613653    -0.86980
C405        C  0.95969165  0.93844207  0.01381986     0.89050
Mg406      Mg  0.96026614  0.07376558  0.99992834     1.58150
O407        O  0.03978355  0.96656266  0.03057162    -0.86710
O408        O  0.00148154  0.01963125  0.07317302    -0.74040
C409        C  0.05908060  0.02557867  0.87700163     0.94100
O410        O  0.92272400  0.99997047  0.97895336    -0.73850
O411        O  0.03336050  0.04370270  0.88066383    -0.81360
Mg412      Mg  0.92714005  0.99734797  0.03603718     1.57960
C413        C  0.12021098  0.94317025  0.97444659     0.94020
O414        O  0.92796364  0.99420493  0.09323020    -0.79620
H415        H  0.07190009  0.98617528  0.06258008    -0.04960
C416        C  0.01700495  0.96205921  0.93269513     0.88960
O417        O  0.01700700  0.07904458  0.99719160    -0.74130
O418        O  0.96589001  0.96174913  0.03255024    -0.86890
O419        O  0.09507435  0.92985734  0.98862224    -0.79700
C420        C  0.02307015  0.88215854  0.05616872     0.94140
C421        C  0.94281218  0.97955572  0.11737425     0.93990
Mg422      Mg  0.07292293  0.00578874  0.95805742     1.57950
O423        O  0.07228765  0.01022611  0.90158685    -0.79630
O424        O  0.07777310  0.00228870  0.01480772    -0.73870
O425        O  0.00822058  0.90614363  0.07050422    -0.79710
O426        O  0.88326865  0.03351349  0.03723906    -0.81420
O427        O  0.99213521  0.09764253  0.92522172    -0.79740
C428        C  0.06367066  0.98453102  0.03703787     0.88430
O429        O  0.03387689  0.04137674  0.96187146    -0.86880
O430        O  0.03515951  0.96809198  0.95666790    -0.86990
O431        O  0.99945622  0.98443116  0.91864846    -0.74040
Mg432      Mg  0.00446906  0.96302896  0.06953433     1.57970
O433        O  0.04006850  0.88637394  0.02961593    -0.81420
H434        H  0.98576940  0.06721159  0.06723804    -0.05140
O435        O  0.95994683  0.03628002  0.96220508    -0.86690
H436        H  0.92856883  0.01471737  0.93068828    -0.04970
H437        H  0.06503981  0.07348421  0.98269903    -0.05140
C438        C  0.93662237  0.01736713  0.95622237     0.88410
C439        C  0.98346183  0.04175891  0.05937314     0.88990
C440        C  0.03971920  0.06508134  0.98022664     0.89040
H441        H  0.01507073  0.93676287  0.92426469    -0.05120
O442        O  0.98191933  0.92501865  0.99585341    -0.74150
Mg443      Mg  0.99613530  0.04094720  0.92381906     1.58000
H444        H  0.93423189  0.93015395  0.01162772    -0.05140
C445        C  0.87945615  0.05885599  0.01833036     0.94030
O446        O  0.95749069  0.11758006  0.96328497    -0.81380
C447        C  0.97709037  0.12202647  0.93868269     0.94090
O448        O  0.96876194  0.96201023  0.11309878    -0.81360
Mg449      Mg  0.03851892  0.92948089  0.99262232     1.58180
O450        O  0.90397870  0.07225033  0.00324400    -0.79700
O451        O  0.11694524  0.96907015  0.95614516    -0.81390
O452        O  0.55334412  0.00854404  0.52807848    -0.86980
C453        C  0.49897446  0.92484980  0.52142262     0.89050
Mg454      Mg  0.53558263  0.05127475  0.55263048     1.58150
O455        O  0.50273720  0.97210657  0.44787829    -0.86710
O456        O  0.57021674  0.99584021  0.47771613    -0.74040
C457        C  0.38013981  0.06974669  0.49996061     0.94100
O458        O  0.50046896  0.97820749  0.57929792    -0.73850
O459        O  0.39943041  0.07929512  0.52294105    -0.81360
Mg460      Mg  0.54956606  0.96236456  0.55450423     1.57960
C461        C  0.42176439  0.99111813  0.39126032     0.94020
O462        O  0.60110036  0.94555880  0.53325839    -0.79620
H463        H  0.52924004  0.99402748  0.41156346    -0.04960
C464        C  0.42097292  0.98509166  0.50528185     0.88960
O465        O  0.51945187  0.07406267  0.50218947    -0.74130
O466        O  0.52246210  0.94323517  0.51381131    -0.86890
O467        O  0.43942304  0.96727286  0.40261749    -0.79700
C468        C  0.49943185  0.88355042  0.43673028     0.94140
C469        C  0.61081369  0.92870533  0.50827257     0.93990
Mg470      Mg  0.44073758  0.03579628  0.45333395     1.57950
O471        O  0.39013107  0.05152374  0.47616175    -0.79630
O472        O  0.48939666  0.02091356  0.42686894    -0.73870
O473        O  0.52450640  0.89449964  0.45239342    -0.79710
O474        O  0.57452992  0.98097467  0.60049767    -0.81420
O475        O  0.46876312  0.10664671  0.55329444    -0.79740
C476        C  0.50791521  0.99525923  0.42792211     0.88430
O477        O  0.46892464  0.05599711  0.49305005    -0.86880
O478        O  0.43848452  0.99012575  0.48024709    -0.86990
O479        O  0.42119779  0.00446124  0.53011305    -0.74040
Mg480      Mg  0.54520377  0.94633316  0.46600234     1.57970
O481        O  0.47427005  0.90148664  0.43007773    -0.81420
H482        H  0.58659552  0.03589059  0.50285858    -0.05140
O483        O  0.48863187  0.02801947  0.55956357    -0.86690
H484        H  0.46097152  0.00555296  0.59464290    -0.04970
H485        H  0.49176692  0.08801765  0.46217522    -0.05140
C486        C  0.48266363  0.00437435  0.57870954     0.88410
C487        C  0.57098498  0.01411470  0.50327786     0.88990
C488        C  0.49296368  0.07350011  0.48499950     0.89040
H489        H  0.40558681  0.96312524  0.50641121    -0.05120
O490        O  0.47244494  0.92411748  0.50436326    -0.74150
Mg491      Mg  0.44640584  0.05446598  0.54118640     1.58000
H492        H  0.50064270  0.90976093  0.54386066    -0.05140
C493        C  0.56823485  0.00696240  0.61698804     0.94030
O494        O  0.51834078  0.09838810  0.57612906    -0.81380
C495        C  0.49457388  0.11762795  0.56791922     0.94090
O496        O  0.59160517  0.92204808  0.48421523    -0.81360
Mg497      Mg  0.45633121  0.94776531  0.45451693     1.58180
O498        O  0.55327160  0.03203292  0.60427606    -0.79700
O499        O  0.41336029  0.01563662  0.40907275    -0.81390
C500        C  0.24600157  0.13004593  0.50090150    -0.01120
O501        O  0.47019427  0.94571466  0.01224298    -0.86980
C502        C  0.48079531  0.00150895  0.92871358     0.89050
Mg503      Mg  0.44516711  0.96485339  0.05492756     1.58150
O504        O  0.55373904  0.99029984  0.97442265    -0.86710
O505        O  0.51848141  0.92479069  0.99764775    -0.74040
C506        C  0.51084830  0.11391875  0.07432480     0.94100
O507        O  0.42177022  0.00102878  0.98152780    -0.73850
O508        O  0.48520214  0.09717066  0.08213158    -0.81360
Mg509      Mg  0.44453345  0.95082973  0.96631401     1.57960
C510        C  0.61681118  0.06562385  0.99671947     0.94020
O511        O  0.46327457  0.89855038  0.94995927    -0.79620
H512        H  0.58600747  0.95937474  0.99659407    -0.04960
C513        C  0.50436481  0.07649652  0.98886817     0.88960
O514        O  0.49541924  0.97635314  0.07881921    -0.74130
O515        O  0.48640195  0.97647173  0.94607562    -0.86890
O516        O  0.60369833  0.05234455  0.97114754    -0.79700
C517        C  0.56461918  0.99688789  0.88503430     0.94140
C518        C  0.48641234  0.88766598  0.93117158     0.93990
Mg519      Mg  0.55218526  0.04945406  0.04087764     1.57950
O520        O  0.53478356  0.10171505  0.05746814    -0.79630
O521        O  0.57330376  0.99904866  0.02463418    -0.73870
O522        O  0.54711721  0.97259872  0.89569739    -0.79710
O523        O  0.39882630  0.92648289  0.98703629    -0.81420
O524        O  0.44738473  0.03213951  0.10840553    -0.79740
C525        C  0.57185490  0.98217723  0.99808309     0.88430
O526        O  0.50913991  0.02566334  0.05968129    -0.86880
O527        O  0.52731176  0.05665815  0.99440295    -0.86990
O528        O  0.47857559  0.07760233  0.00722819    -0.74040
Mg529      Mg  0.53223253  0.95032342  0.94762016     1.57970
O530        O  0.57381504  0.02027234  0.90379115    -0.81420
H531        H  0.49297233  0.91024351  0.03910647    -0.05140
O532        O  0.44271469  0.01215267  0.03056146    -0.86690
H533        H  0.40911219  0.04163752  0.00833028    -0.04970
H534        H  0.53656129  0.00107128  0.09341559    -0.05140
C535        C  0.42378794  0.01910097  0.00721548     0.88410
C536        C  0.49350360  0.92612943  0.01718510     0.88990
C537        C  0.51445344  0.00141919  0.07818439     0.89040
H538        H  0.50575860  0.09249905  0.96709108    -0.05120
O539        O  0.50013312  0.02643159  0.92836870    -0.74150
Mg540      Mg  0.46372045  0.05266894  0.05681451     1.58000
H541        H  0.45829660  0.00258958  0.91405205    -0.05140
C542        C  0.38125147  0.93440909  0.01211961     0.94030
O543        O  0.42133297  0.98399618  0.10137505    -0.81380
C544        C  0.42966254  0.00823986  0.11936890     0.94090
O545        O  0.51068810  0.90578668  0.92196357    -0.81360
Mg546      Mg  0.55113322  0.03828704  0.95138600     1.58180
O547        O  0.39263945  0.95158190  0.03587001    -0.79700
O548        O  0.60021453  0.07129041  0.02303413    -0.81390
C549        C  0.50098735  0.25005625  0.12531352    -0.01120
O550        O  0.53431940  0.46145023  0.03438394    -0.86980
C551        C  0.43757474  0.48550881  0.04193515     0.89050
Mg552      Mg  0.57240360  0.49714688  0.03638037     1.58150
O553        O  0.46429157  0.46811593  0.96108214    -0.86710
O554        O  0.51788193  0.42450603  0.99843558    -0.74040
C555        C  0.52076322  0.62279355  0.93916595     0.94100
O556        O  0.50003776  0.51913087  0.07677337    -0.73850
O557        O  0.53953794  0.61850950  0.96434208    -0.81360
Mg558      Mg  0.49740172  0.46238367  0.07305571     1.57960
C559        C  0.43903445  0.52455601  0.87991100     0.94020
O560        O  0.49467014  0.40553893  0.07334557    -0.79620
H561        H  0.48462287  0.43672591  0.92853018    -0.04960
C562        C  0.45891334  0.56589664  0.98315363     0.88960
O563        O  0.57520359  0.49984227  0.97922946    -0.74130
O564        O  0.46078242  0.46635773  0.03544117    -0.86890
O565        O  0.42642960  0.50949009  0.90515591    -0.79700
C566        C  0.38021952  0.44380498  0.98105373     0.94140
C567        C  0.47965825  0.38145488  0.05973705     0.93990
Mg568      Mg  0.50180865  0.54140033  0.92570199     1.57950
O569        O  0.50582111  0.59830313  0.92609086    -0.79630
O570        O  0.49878808  0.48461725  0.92173159    -0.73870
O571        O  0.40400047  0.42927638  0.99632753    -0.79710
O572        O  0.53480795  0.46044680  0.11523321    -0.81420
O573        O  0.59461673  0.57302251  0.00248548    -0.79740
C574        C  0.48220405  0.46209099  0.93670146     0.88430
O575        O  0.53834142  0.53708658  0.96331553    -0.86880
O576        O  0.46495134  0.54227681  0.96463517    -0.86990
O577        O  0.48148690  0.57968955  0.00005300    -0.74040
Mg578      Mg  0.46121026  0.42920205  0.99748462     1.57970
O579        O  0.38452611  0.46940237  0.96264751    -0.81420
H580        H  0.56580985  0.42988650  0.01259541    -0.05140
O581        O  0.53495049  0.53548097  0.03772879    -0.86690
H582        H  0.51427231  0.56699190  0.06994348    -0.04970
H583        H  0.56896548  0.51479201  0.93116351    -0.05140
C584        C  0.51680580  0.54158272  0.06191532     0.88410
C585        C  0.54039131  0.43807282  0.01557560     0.88990
C586        C  0.56132973  0.51765656  0.95685521     0.89040
H587        H  0.43351987  0.57420741  0.98598962    -0.05120
O588        O  0.42364761  0.50333398  0.01960589    -0.74150
Mg589      Mg  0.53818011  0.57443273  0.00124390     1.58000
H590        H  0.42978529  0.48811692  0.06760530    -0.05140
C591        C  0.56060148  0.47814853  0.11876837     0.94030
O592        O  0.61538870  0.53302053  0.03536051    -0.81380
C593        C  0.61901623  0.55846012  0.01660994     0.94090
O594        O  0.46114916  0.38579062  0.03436926    -0.81360
Mg595      Mg  0.42696168  0.50618324  0.96251134     1.58180
O596        O  0.57386540  0.49364359  0.09407193    -0.79700
O597        O  0.46402869  0.54353595  0.88309667    -0.81390
O598        O  0.96604474  0.53747718  0.53448891    -0.86980
C599        C  0.06496633  0.51713759  0.54097121     0.89050
Mg600      Mg  0.92784441  0.50125397  0.53915596     1.58150
O601        O  0.03745312  0.53406417  0.46002361    -0.86710
O602        O  0.98231686  0.57488672  0.49761508    -0.74040
C603        C  0.98327035  0.37945272  0.44330555     0.94100
O604        O  0.00262648  0.48088703  0.57786338    -0.73850
O605        O  0.96511503  0.38299708  0.46912262    -0.81360
Mg606      Mg  0.00402617  0.53748448  0.57206610     1.57960
C607        C  0.06242434  0.47845447  0.38167951     0.94020
O608        O  0.00557599  0.59398769  0.57044015    -0.79620
H609        H  0.01551155  0.56517236  0.42766699    -0.04960
C610        C  0.04387175  0.43707715  0.48632622     0.88960
O611        O  0.92399684  0.49799609  0.48219566    -0.74130
O612        O  0.04068458  0.53470439  0.53385414    -0.86890
O613        O  0.07631401  0.49324992  0.40573042    -0.79700
C614        C  0.12123089  0.56105337  0.47640950     0.94140
C615        C  0.02006748  0.61864881  0.55657292     0.93990
Mg616      Mg  0.99991488  0.46073083  0.42879184     1.57950
O617        O  0.99796822  0.40387860  0.42917099    -0.79630
O618        O  0.00114007  0.51728623  0.42338307    -0.73870
O619        O  0.09660459  0.57445333  0.49141101    -0.79710
O620        O  0.96729026  0.53874530  0.61526494    -0.81420
O621        O  0.90690294  0.42556420  0.50804165    -0.79740
C622        C  0.01849969  0.53986489  0.43643310     0.88430
O623        O  0.96337001  0.46352405  0.46708293    -0.86880
O624        O  0.03775259  0.46031393  0.46673452    -0.86990
O625        O  0.02130635  0.42294791  0.50362779    -0.74040
Mg626      Mg  0.03932603  0.57238334  0.49525190     1.57970
O627        O  0.11796313  0.53449260  0.45990683    -0.81420
H628        H  0.93427515  0.56830105  0.51152112    -0.05140
O629        O  0.96615936  0.46395903  0.54136218    -0.86690
H630        H  0.98819386  0.43297531  0.57379153    -0.04970
H631        H  0.93114562  0.48322318  0.43452000    -0.05140
C632        C  0.98521122  0.45825100  0.56491750     0.88410
C633        C  0.95981129  0.56066016  0.51489105     0.88990
C634        C  0.93907880  0.48118484  0.46018782     0.89040
H635        H  0.06937960  0.42933424  0.48970645    -0.05120
O636        O  0.07993038  0.49995891  0.51920515    -0.74150
Mg637      Mg  0.96431918  0.42593312  0.50554591     1.58000
H638        H  0.07287917  0.51538892  0.56666447    -0.05140
C639        C  0.94140327  0.52130667  0.62007960     0.94030
O640        O  0.88491240  0.46376332  0.54105028    -0.81380
C641        C  0.88168678  0.43854534  0.52246233     0.94090
O642        O  0.03882811  0.61528273  0.53122163    -0.81360
Mg643      Mg  0.07582417  0.49680394  0.46239484     1.58180
O644        O  0.92752934  0.50570310  0.59638950    -0.79700
O645        O  0.03681300  0.46043914  0.38581393    -0.81390
O646        O  0.96190610  0.53605342  0.03627701    -0.86980
C647        C  0.98105831  0.54083349  0.93760233     0.89050
Mg648      Mg  0.99967925  0.54067652  0.07226590     1.58150
O649        O  0.96602389  0.46023339  0.96752957    -0.86710
O650        O  0.92540689  0.49830675  0.02259696    -0.74040
C651        C  0.12219227  0.44342369  0.01825127     0.94100
O652        O  0.01720437  0.57893099  0.99727192    -0.73850
O653        O  0.11916728  0.46951513  0.03561446    -0.81360
Mg654      Mg  0.96039857  0.57353916  0.99772823     1.57960
C655        C  0.02306720  0.38139327  0.94234756     0.94020
O656        O  0.90366658  0.57213734  0.99769922    -0.79620
H657        H  0.93564120  0.42823718  0.99071200    -0.04960
C658        C  0.06259720  0.48497915  0.95711472     0.88960
O659        O  0.00352422  0.48409687  0.07832407    -0.74130
O660        O  0.96353691  0.53455559  0.96231567    -0.86890
O661        O  0.00725795  0.40524259  0.92837613    -0.79700
C662        C  0.93778221  0.47701465  0.88322336     0.94140
C663        C  0.87969994  0.55702704  0.98401115     0.93990
Mg664      Mg  0.04043956  0.42900722  0.00404785     1.57950
O665        O  0.09712058  0.42974063  0.00491580    -0.79630
O666        O  0.98390779  0.42363849  0.00423308    -0.73870
O667        O  0.92491579  0.49217680  0.90798469    -0.79710
O668        O  0.95927976  0.61758286  0.03358077    -0.81420
O669        O  0.07783088  0.50990956  0.09258813    -0.79740
C670        C  0.96081364  0.43679437  0.98706869     0.88430
O671        O  0.03812048  0.46779337  0.03933894    -0.86880
O672        O  0.03949688  0.46620910  0.96493849    -0.86990
O673        O  0.07726943  0.50269596  0.97844264    -0.74040
Mg674      Mg  0.92719066  0.49562049  0.96550341     1.57970
O675        O  0.96373057  0.45919603  0.88673360    -0.81420
H676        H  0.93247657  0.51374855  0.06996286    -0.05140
O677        O  0.03598954  0.54149568  0.03274439    -0.86690
H678        H  0.06588969  0.57370865  0.00917182    -0.04970
H679        H  0.01894874  0.43645116  0.07328317    -0.05140
C680        C  0.04078392  0.56516440  0.01334810     0.88410
C681        C  0.93943926  0.51646771  0.04399575     0.88990
C682        C  0.02065097  0.46173907  0.06415256     0.89040
H683        H  0.06966613  0.48730595  0.93115416    -0.05120
O684        O  0.99797766  0.51855649  0.92305853    -0.74150
Mg685      Mg  0.07538735  0.50598338  0.03546722     1.58000
H686        H  0.98289778  0.56623516  0.92879870    -0.05140
C687        C  0.97954827  0.62196659  0.05738682     0.94030
O688        O  0.03833190  0.54326017  0.11271888    -0.81380
C689        C  0.06420472  0.52542801  0.11661681     0.94090
O690        O  0.88380813  0.53133222  0.96636378    -0.81360
Mg691      Mg  0.00218717  0.46186043  0.92804944     1.58180
O692        O  0.99533486  0.59754853  0.07045289    -0.79700
O693        O  0.04084370  0.38562216  0.96811431    -0.81390
C694        C  0.12348949  0.50339488  0.24970457    -0.01120
O695        O  0.44520978  0.48883585  0.52551109    -0.86980
C696        C  0.49670290  0.57390315  0.51695990     0.89050
Mg697      Mg  0.46476604  0.44621487  0.55076125     1.58150
O698        O  0.49172086  0.52979166  0.44285877    -0.86710
O699        O  0.42626505  0.50232917  0.47582250    -0.74040
C700        C  0.61678726  0.43048752  0.48808080     0.94100
O701        O  0.49829636  0.51942648  0.57450082    -0.73850
O702        O  0.59888902  0.42069756  0.51255146    -0.81360
Mg703      Mg  0.44789473  0.53442408  0.55136532     1.57960
C704        C  0.57182554  0.51306108  0.38371375     0.94020
O705        O  0.39595921  0.55059290  0.53164174    -0.79620
H706        H  0.46387112  0.50810644  0.40830524    -0.04960
C707        C  0.57592664  0.51503886  0.49663942     0.88960
O708        O  0.47862198  0.42386693  0.49999125    -0.74130
O709        O  0.47291093  0.55600144  0.50980879    -0.86890
O710        O  0.55549147  0.53774645  0.39502367    -0.79700
C711        C  0.49394771  0.61872454  0.43365692     0.94140
C712        C  0.38299122  0.56620187  0.50696559     0.93990
Mg713      Mg  0.55331306  0.46552143  0.44645144     1.57950
O714        O  0.60548257  0.44946994  0.46512764    -0.79630
O715        O  0.50366951  0.48066304  0.42293934    -0.73870
O716        O  0.46833876  0.60552852  0.44731080    -0.79710
O717        O  0.42360410  0.51275010  0.59717036    -0.81420
O718        O  0.53212070  0.39198871  0.54824032    -0.79740
C719        C  0.48577408  0.50668774  0.42376839     0.88430
O720        O  0.52783567  0.44389753  0.48780445    -0.86880
O721        O  0.55702051  0.51058395  0.47284288    -0.86990
O722        O  0.57716358  0.49506388  0.52146450    -0.74040
Mg723      Mg  0.44873229  0.55320906  0.46245411     1.57970
O724        O  0.52024836  0.60239117  0.42740412    -0.81420
H725        H  0.41245988  0.46082270  0.50143103    -0.05140
O726        O  0.51136913  0.47031892  0.55489700    -0.86690
H727        H  0.53946603  0.49348387  0.58831999    -0.04970
H728        H  0.50496841  0.41120288  0.45870544    -0.05140
C729        C  0.51717632  0.49401688  0.57334271     0.88410
C730        C  0.42713447  0.48323284  0.50133044     0.88990
C731        C  0.50421447  0.42554538  0.48135020     0.89040
H732        H  0.59124704  0.53702716  0.49671912    -0.05120
O733        O  0.52305658  0.57494652  0.49938161    -0.74150
Mg734      Mg  0.55301133  0.44469233  0.53421233     1.58000
H735        H  0.49557018  0.58806808  0.53966382    -0.05140
C736        C  0.43195366  0.48777367  0.61499322     0.94030
O737        O  0.48394786  0.39947181  0.57434923    -0.81380
C738        C  0.50740493  0.38058962  0.56486901     0.94090
O739        O  0.40007010  0.57478633  0.48145523    -0.81360
Mg740      Mg  0.53851410  0.55414404  0.44859847     1.58180
O741        O  0.44968604  0.46422690  0.60357981    -0.79700
O742        O  0.57727542  0.48722742  0.40136421    -0.81390
C743        C  0.00188225  0.74662387  0.62166314    -0.01120
O744        O  0.21364479  0.78826657  0.71474903    -0.86980
C745        C  0.20664966  0.76620498  0.81250362     0.89050
Mg746      Mg  0.21214540  0.75122465  0.67780508     1.58150
O747        O  0.28649674  0.78664840  0.78525814    -0.86710
O748        O  0.24830488  0.82697027  0.73014161    -0.74040
C749        C  0.31257904  0.63197435  0.73480703     0.94100
O750        O  0.17284745  0.73015314  0.75131369    -0.73850
O751        O  0.28715632  0.63514710  0.71625895    -0.81360
Mg752      Mg  0.17491348  0.78714523  0.75188814     1.57960
C753        C  0.36868337  0.73555162  0.81091626     0.94020
O754        O  0.17278788  0.84426432  0.75256953    -0.79620
H755        H  0.31680196  0.81883385  0.76219996    -0.04960
C756        C  0.26740713  0.68872614  0.79380769     0.88960
O757        O  0.26896153  0.75025684  0.67384399    -0.74130
O758        O  0.21246504  0.78521668  0.78867359    -0.86890
O759        O  0.34357369  0.74950088  0.82444983    -0.79700
C760        C  0.26475292  0.81151029  0.86921027     0.94140
C761        C  0.18630493  0.86867883  0.76709288     0.93990
Mg762      Mg  0.32347597  0.71401588  0.74916840     1.57950
O763        O  0.32613958  0.65655820  0.74911304    -0.79630
O764        O  0.32470205  0.77094051  0.74935800    -0.73870
O765        O  0.24912710  0.82473517  0.84482413    -0.79710
O766        O  0.13269769  0.78651058  0.71463909    -0.81420
O767        O  0.24682384  0.67447206  0.65690767    -0.79740
C768        C  0.30979063  0.79319417  0.76599470     0.88430
O769        O  0.28577688  0.71488624  0.71238806    -0.86880
O770        O  0.28544924  0.71265715  0.78688048    -0.86990
O771        O  0.25076574  0.67387257  0.77173358    -0.74040
Mg772      Mg  0.24905110  0.82370469  0.78725142     1.57970
O773        O  0.28468834  0.78722650  0.86554883    -0.81420
H774        H  0.23482811  0.81969859  0.68213180    -0.05140
O775        O  0.21182612  0.71404047  0.71652720    -0.86690
H776        H  0.18074768  0.68211323  0.73890193    -0.04970
H777        H  0.31707206  0.73655818  0.68005354    -0.05140
C778        C  0.18807069  0.70769342  0.73524635     0.88410
C779        C  0.23184852  0.81211400  0.70792039     0.88990
C780        C  0.29165805  0.73346794  0.68824620     0.89040
H781        H  0.26468992  0.68107567  0.81961867    -0.05120
O782        O  0.22950322  0.74979700  0.82712101    -0.74150
Mg783      Mg  0.24901175  0.67654079  0.71464912     1.58000
H784        H  0.18119477  0.76249820  0.82031254    -0.05140
C785        C  0.12982790  0.76655947  0.69054427     0.94030
O786        O  0.21291706  0.71361311  0.63626128    -0.81380
C787        C  0.23136194  0.68819637  0.63260343     0.94090
O788        O  0.21149398  0.86525837  0.78582055    -0.81360
Mg789      Mg  0.28642817  0.74963952  0.82394979     1.58180
O790        O  0.15521027  0.75222708  0.67800188    -0.79700
O791        O  0.36586951  0.71652837  0.78602051    -0.81390
C792        C  0.49823396  0.75464283  0.87435801    -0.01120
C793        C  0.43009046  0.74707312  0.80513469     0.24960
C794        C  0.40180538  0.74149293  0.82526266    -0.23150
C795        C  0.40482303  0.74293506  0.85981760     0.19870
C796        C  0.43549351  0.74820857  0.87428792     0.24900
C797        C  0.46490828  0.75246186  0.85474571    -0.23090
C798        C  0.46126142  0.75326494  0.81960156     0.19810
F799        F  0.48708903  0.76057594  0.79905337    -0.13050
F800        F  0.42735277  0.74748296  0.77140322    -0.15410
F801        F  0.43672261  0.74686160  0.90808731    -0.15410
F802        F  0.37809584  0.73767172  0.87999594    -0.13050
C803        C  0.06738710  0.77573590  0.68705727     0.24960
C804        C  0.09647498  0.75936490  0.67642378    -0.23150
C805        C  0.09383241  0.73621392  0.65091020     0.19870
C806        C  0.06382717  0.73048847  0.63525329     0.24900
C807        C  0.03367438  0.74708744  0.64486274    -0.23090
C808        C  0.03688403  0.77058715  0.67092628     0.19810
F809        F  0.01144412  0.79152194  0.67827927    -0.13050
F810        F  0.06862938  0.79834177  0.71180444    -0.15410
F811        F  0.06667138  0.71152527  0.60772182    -0.15410
F812        F  0.12102089  0.72006018  0.63896719    -0.13050
C813        C  0.05720241  0.51282431  0.17715201     0.24960
C814        C  0.07802464  0.52121223  0.15034518    -0.23150
C815        C  0.11222836  0.52063261  0.15508242     0.19870
C816        C  0.12539465  0.51375975  0.18649247     0.24900
C817        C  0.10499665  0.50798470  0.21515923    -0.23090
C818        C  0.07035967  0.50445712  0.20846626     0.19810
F819        F  0.04941154  0.48738073  0.22865227    -0.13050
F820        F  0.02408775  0.50909699  0.17209966    -0.15410
F821        F  0.15870083  0.51038755  0.18791968    -0.15410
F822        F  0.13322984  0.52611949  0.12898734    -0.13050
C823        C  0.01095969  0.71223661  0.56696569     0.24960
C824        C  0.00439313  0.71412532  0.60163011    -0.23150
C825        C  0.00302759  0.68389817  0.62028334     0.19870
C826        C  0.00809809  0.65355330  0.60542148     0.24900
C827        C  0.01498456  0.65169408  0.57129355    -0.23090
C828        C  0.01625494  0.68122263  0.55206545     0.19810
F829        F  0.02270474  0.68011756  0.51884345    -0.13050
F830        F  0.01465850  0.73994379  0.54781904    -0.15410
F831        F  0.00777725  0.62588070  0.62516714    -0.15410
F832        F  0.99897363  0.68373318  0.65391581    -0.13050
C833        C  0.06994619  0.50413886  0.29096024     0.24960
C834        C  0.10449084  0.49950136  0.28419433    -0.23150
C835        C  0.12432812  0.49251009  0.31279737     0.19870
C836        C  0.11059354  0.48388159  0.34355408     0.24900
C837        C  0.07630397  0.48353404  0.34799982    -0.23090
C838        C  0.05603757  0.49425003  0.32168403     0.19810
F839        F  0.02298799  0.49883617  0.32692286    -0.13050
F840        F  0.05024439  0.52381498  0.27190831    -0.15410
F841        F  0.13116675  0.47680797  0.36948439    -0.15410
F842        F  0.15753597  0.49661104  0.31216006    -0.13050
C843        C  0.52564755  0.71687354  0.92065188     0.24960
C844        C  0.50192344  0.72107509  0.89483932    -0.23150
C845        C  0.48667180  0.69119500  0.88344502     0.19870
C846        C  0.49255178  0.66054800  0.89834578     0.24900
C847        C  0.51521351  0.65675587  0.92447739    -0.23090
C848        C  0.53174273  0.68540934  0.93558835     0.19810
F849        F  0.55451240  0.68302066  0.96035910    -0.13050
F850        F  0.54407046  0.74294761  0.93072733    -0.15410
F851        F  0.47627525  0.63408806  0.88566854    -0.15410
F852        F  0.46756760  0.68982582  0.85571259    -0.13050
C853        C  0.48883004  0.34433777  0.10866029     0.24960
C854        C  0.48399723  0.34779004  0.07445831    -0.23150
C855        C  0.48283623  0.31902221  0.05520270     0.19870
C856        C  0.48758891  0.28736709  0.06979719     0.24900
C857        C  0.49515089  0.28344931  0.10452162    -0.23090
C858        C  0.49288277  0.31319816  0.12331388     0.19810
F859        F  0.49193895  0.31260848  0.15687010    -0.13050
F860        F  0.48773027  0.37124678  0.12871767    -0.15410
F861        F  0.47984483  0.26178055  0.04995803    -0.15410
F862        F  0.47630448  0.32133912  0.02205581    -0.13050
C863        C  0.48782584  0.84890875  0.88425017     0.24960
C864        C  0.48507707  0.85344221  0.91850427    -0.23150
C865        C  0.48386535  0.82538461  0.93982679     0.19870
C866        C  0.48735038  0.79307454  0.92695547     0.24900
C867        C  0.49204942  0.78840751  0.89225311    -0.23090
C868        C  0.49061032  0.81728143  0.87128976     0.19810
F869        F  0.49419679  0.81506681  0.83771453    -0.13050
F870        F  0.48842611  0.87547537  0.86303216    -0.15410
F871        F  0.48549430  0.76695427  0.94849297    -0.15410
F872        F  0.48059965  0.82933026  0.97324302    -0.13050
C873        C  0.50878577  0.15468754  0.11951224     0.24960
C874        C  0.51259879  0.14839580  0.08578026    -0.23150
C875        C  0.51790978  0.17509627  0.06370888     0.19870
C876        C  0.51648947  0.20803080  0.07498888     0.24900
C877        C  0.50800505  0.21513098  0.10885397    -0.23090
C878        C  0.50842484  0.18708051  0.13090215     0.19810
F879        F  0.51046406  0.19056706  0.16418413    -0.13050
F880        F  0.50668662  0.12917186  0.14190983    -0.15410
F881        F  0.52806506  0.23124194  0.05332493    -0.15410
F882        F  0.52472010  0.16932395  0.03109169    -0.13050
C883        C  0.31794535  0.06192591  0.50083871     0.24960
C884        C  0.34591695  0.08257426  0.49948665    -0.23150
C885        C  0.34143320  0.11617404  0.49353376     0.19870
C886        C  0.30974201  0.12924977  0.49019188     0.24900
C887        C  0.28050483  0.11065822  0.49850487    -0.23090
C888        C  0.28557261  0.07556715  0.49965089     0.19810
F889        F  0.26067817  0.05399669  0.49393981    -0.13050
F890        F  0.32195274  0.02847069  0.50208531    -0.15410
F891        F  0.30834941  0.15807830  0.47253320    -0.15410
F892        F  0.36803478  0.13596493  0.48711238    -0.13050
C893        C  0.96932166  0.82538185  0.57262484     0.24960
C894        C  0.99153528  0.84961595  0.58348988    -0.23150
C895        C  0.02091847  0.83857418  0.59897374     0.19870
C896        C  0.02692152  0.80496784  0.60467050     0.24900
C897        C  0.00159988  0.78070016  0.60077743    -0.23090
C898        C  0.97461030  0.79160238  0.58032965     0.19810
F899        F  0.95549698  0.77016319  0.56367905    -0.13050
F900        F  0.94311160  0.83398571  0.55311147    -0.15410
F901        F  0.05876298  0.79683070  0.61210012    -0.15410
F902        F  0.04514295  0.86009980  0.60777244    -0.13050
C903        C  0.20619097  0.08040839  0.52069503     0.24960
C904        C  0.21205558  0.11026237  0.50218596    -0.23150
C905        C  0.18270716  0.12681639  0.49045901     0.19870
C906        C  0.15194592  0.11168761  0.49017827     0.24900
C907        C  0.14732592  0.08049013  0.50471708    -0.23090
C908        C  0.17451201  0.06522541  0.52095308     0.19810
F909        F  0.17022028  0.03630826  0.53813484    -0.13050
F910        F  0.22909249  0.06878197  0.54271474    -0.15410
F911        F  0.12572394  0.12933992  0.47799036    -0.15410
F912        F  0.18235932  0.15947216  0.48213558    -0.13050
C913        C  0.38333238  0.01227276  0.15880299     0.24960
C914        C  0.41720341  0.00875432  0.15368173    -0.23150
C915        C  0.43751511  0.99979016  0.18052330     0.19870
C916        C  0.42400456  0.99505988  0.21263397     0.24900
C917        C  0.38976929  0.00209465  0.21929115    -0.23090
C918        C  0.36984807  0.00826877  0.19048152     0.19810
F919        F  0.33638806  0.00793184  0.19211496    -0.13050
F920        F  0.36278792  0.01815576  0.13256199    -0.15410
F921        F  0.44375697  0.97830336  0.23416123    -0.15410
F922        F  0.47003359  0.99248488  0.17502435    -0.13050
C923        C  0.42178114  0.00184977  0.29737987     0.24960
C924        C  0.38752426  0.99768809  0.28915571    -0.23150
C925        C  0.36563615  0.99347473  0.31698192     0.19870
C926        C  0.37699729  0.98970786  0.34953801     0.24900
C927        C  0.41071984  0.99077958  0.35636951    -0.23090
C928        C  0.43308019  0.99693124  0.33022495     0.19810
F929        F  0.46577601  0.00138721  0.33699872    -0.13050
F930        F  0.44407874  0.01592194  0.27639465    -0.15410
F931        F  0.35464674  0.98609151  0.37479967    -0.15410
F932        F  0.33239458  0.99548982  0.31336225    -0.13050
C933        C  0.18682554  0.37996141  0.99525591     0.24960
C934        C  0.21803255  0.39630214  0.99913503    -0.23150
C935        C  0.21539123  0.43134793  0.00333252     0.19870
C936        C  0.18476656  0.44647478  0.01150927     0.24900
C937        C  0.15531543  0.42787417  0.01294597    -0.23090
C938        C  0.15692147  0.39451297  0.00420267     0.19810
F939        F  0.12900761  0.37577470  0.00239463    -0.13050
F940        F  0.18382199  0.35106416  0.97856578    -0.15410
F941        F  0.18359900  0.47988646  0.01527695    -0.15410
F942        F  0.24038288  0.45217859  0.99488428    -0.13050
C943        C  0.29428363  0.42096904  0.01241339     0.24960
C944        C  0.28438752  0.39634871  0.98936723    -0.23150
C945        C  0.30937551  0.38645848  0.96567650     0.19870
C946        C  0.33943081  0.40307626  0.96255350     0.24900
C947        C  0.34701219  0.42911460  0.98342559    -0.23090
C948        C  0.32455210  0.43792477  0.00862385     0.19810
F949        F  0.33270041  0.46180115  0.03066122    -0.13050
F950        F  0.27584319  0.42687886  0.04018174    -0.15410
F951        F  0.36237522  0.39207197  0.94026999    -0.15410
F952        F  0.30739540  0.35819054  0.94782349    -0.13050
C953        C  0.18837937  0.42868742  0.24715577     0.24960
C954        C  0.16754331  0.40308686  0.23718508    -0.23150
C955        C  0.13386294  0.40930058  0.23364514     0.19870
C956        C  0.12112095  0.44091416  0.23876342     0.24900
C957        C  0.14166843  0.46863890  0.24615643    -0.23090
C958        C  0.17569173  0.46063113  0.25289868     0.19810
F959        F  0.19610138  0.48051022  0.27016433    -0.13050
F960        F  0.22059197  0.42191639  0.25466520    -0.15410
F961        F  0.08774303  0.44322459  0.23924049    -0.15410
F962        F  0.11270514  0.38404292  0.22709876    -0.13050
C963        C  0.24347243  0.13937575  0.40562462     0.24960
C964        C  0.24011403  0.17336828  0.40016228    -0.23150
C965        C  0.23806085  0.19478471  0.42745085     0.19870
C966        C  0.24030414  0.18216145  0.46023018     0.24900
C967        C  0.24434553  0.14756628  0.46605319    -0.23090
C968        C  0.24485142  0.12659724  0.43775369     0.19810
F969        F  0.24604058  0.09307540  0.44116071    -0.13050
F970        F  0.24475722  0.11819817  0.37954682    -0.15410
F971        F  0.23502158  0.20334651  0.48568692    -0.15410
F972        F  0.23415945  0.22792571  0.42233267    -0.13050
C973        C  0.45924312  0.23878090  0.17773162     0.24960
C974        C  0.46616211  0.24471584  0.14311728    -0.23150
C975        C  0.43792118  0.24329472  0.12186619     0.19870
C976        C  0.40565431  0.24476474  0.13408842     0.24900
C977        C  0.39973239  0.24359869  0.16818130    -0.23090
C978        C  0.42646712  0.23909493  0.18990643     0.19810
F979        F  0.42083872  0.23440198  0.22305443    -0.13050
F980        F  0.48225349  0.22783530  0.19971734    -0.15410
F981        F  0.37990181  0.24567533  0.11230454    -0.15410
F982        F  0.44108093  0.23851149  0.08880245    -0.13050
C983        C  0.36361272  0.09606850  0.26233178     0.24960
C984        C  0.32991142  0.10318313  0.26053220    -0.23150
C985        C  0.30776471  0.07745957  0.25410186     0.19870
C986        C  0.31917422  0.04474116  0.24983382     0.24900
C987        C  0.35327954  0.03606222  0.25505207    -0.22130
C988        C  0.37506264  0.06361220  0.25917597     0.19810
F989        F  0.40832754  0.05994663  0.25730015    -0.13050
F990        F  0.38590468  0.12097994  0.26588397    -0.15410
F991        F  0.29746601  0.02473096  0.23452952    -0.15410
F992        F  0.27526128  0.08461331  0.24845189    -0.13050
C993        C  0.23060413  0.32584063  0.07627786     0.24960
C994        C  0.25882961  0.33116799  0.09553649    -0.23150
C995        C  0.28763564  0.34241121  0.07957942     0.19870
C996        C  0.28696252  0.35202381  0.04584273     0.24900
C997        C  0.25655222  0.35288541  0.02729462    -0.23090
C998        C  0.22998923  0.33493157  0.04256854     0.19810
F999        F  0.20451619  0.32268246  0.02506149    -0.13050
F1000       F  0.20382985  0.31011213  0.08975031    -0.15410
F1001       F  0.31681404  0.35896687  0.03168320    -0.15410
F1002       F  0.31649464  0.34474517  0.09677334    -0.13050
C1003       C  0.98519180  0.34403253  0.39358544     0.24960
C1004       C  0.98704706  0.34644030  0.42817488    -0.23150
C1005       C  0.99442331  0.31782492  0.44727176     0.19870
C1006       C  0.99956574  0.28699247  0.43182513     0.24900
C1007       C  0.99616947  0.28403082  0.39675510    -0.23090
C1008       C  0.98971551  0.31373488  0.37818395     0.19810
F1009       F  0.98618917  0.31331848  0.34457368    -0.13050
F1010       F  0.97800999  0.37115855  0.37441270    -0.15410
F1011       F  0.00908779  0.26098695  0.45133306    -0.15410
F1012       F  0.99805680  0.32000685  0.48080724    -0.13050
C1013       C  0.02317886  0.19120363  0.38096517     0.24960
C1014       C  0.00238832  0.21680887  0.39454144    -0.23150
C1015       C  0.98053111  0.20692439  0.42068916     0.19870
C1016       C  0.98128660  0.17448784  0.43386904     0.24900
C1017       C  0.00322992  0.15074811  0.42099014    -0.23090
C1018       C  0.02416260  0.15939313  0.39474524     0.19810
F1019       F  0.04397709  0.13607738  0.38054861    -0.13050
F1020       F  0.04136262  0.19542695  0.35265588    -0.15410
F1021       F  0.96009402  0.16604552  0.45898776    -0.15410
F1022       F  0.95748101  0.22805122  0.43306349    -0.13050
C1023       C  0.09364335  0.25905233  0.36551235     0.24960
C1024       C  0.09831719  0.26428994  0.33144608    -0.23150
C1025       C  0.07037826  0.26884519  0.31085521     0.19870
C1026       C  0.03792981  0.26579552  0.32406977     0.24900
C1027       C  0.03303985  0.25825953  0.35840196    -0.23090
C1028       C  0.06192064  0.25693019  0.37887917     0.19810
F1029       F  0.05968007  0.25091208  0.41216742    -0.13050
F1030       F  0.12013823  0.25542518  0.38614653    -0.15410
F1031       F  0.01194338  0.27074753  0.30322272    -0.15410
F1032       F  0.07451470  0.27496638  0.27773473    -0.13050
C1033       C  0.88015752  0.98647335  0.18611700     0.24960
C1034       C  0.89982508  0.99278417  0.21483434    -0.23150
C1035       C  0.93469219  0.99427761  0.21068008     0.19870
C1036       C  0.94898931  0.98895374  0.17906706     0.24900
C1037       C  0.92881405  0.98296438  0.15113547    -0.23090
C1038       C  0.89441873  0.98193056  0.15506306     0.19810
F1039       F  0.87431483  0.97616798  0.12865203    -0.13050
F1040       F  0.84645226  0.98561783  0.18811248    -0.15410
F1041       F  0.98248093  0.99068841  0.17551426    -0.15410
F1042       F  0.95494076  0.00055816  0.23674124    -0.13050
C1043       C  0.92006907  0.97747424  0.33530185     0.24960
C1044       C  0.91774790  0.00824228  0.35080276    -0.23150
C1045       C  0.91324436  0.03643793  0.33036499     0.19870
C1046       C  0.90684677  0.03320843  0.29596891     0.24900
C1047       C  0.90286495  0.00138913  0.28102726    -0.23090
C1048       C  0.91413300  0.97423407  0.30125119     0.19810
F1049       F  0.92249332  0.94453416  0.28880264    -0.13050
F1050       F  0.92980954  0.95013040  0.35295421    -0.15410
F1051       F  0.90447312  0.06162205  0.27759856    -0.15410
F1052       F  0.91416939  0.06719442  0.34370936    -0.13050
C1053       C  0.83579276  0.03943844  0.26883024     0.24960
C1054       C  0.85860264  0.02910417  0.24373049    -0.23150
C1055       C  0.86510966  0.05344720  0.21774046     0.19870
C1056       C  0.84685649  0.08261628  0.21470216     0.24900
C1057       C  0.82348515  0.09113159  0.23854923    -0.23090
C1058       C  0.81826743  0.06976883  0.26600786     0.19810
F1059       F  0.79705025  0.07881364  0.29069734    -0.13050
F1060       F  0.83241857  0.02146708  0.29753558    -0.15410
F1061       F  0.85436002  0.10434791  0.18956704    -0.15410
F1062       F  0.89183158  0.05227190  0.19703642    -0.13050
C1063       C  0.93183401  0.21929564  0.31395731     0.24960
C1064       C  0.90211758  0.23181828  0.32786504    -0.23150
C1065       C  0.90456633  0.25170438  0.35611287     0.19870
C1066       C  0.93512606  0.25922979  0.36993370     0.24900
C1067       C  0.96583271  0.24755909  0.35610571    -0.23090
C1068       C  0.96299584  0.22628547  0.32830630     0.19810
F1069       F  0.99015353  0.21121006  0.31529083    -0.13050
F1070       F  0.93090376  0.19978842  0.28665414    -0.15410
F1071       F  0.93333367  0.27670287  0.39858458    -0.15410
F1072       F  0.87699558  0.26349251  0.37174093    -0.13050
C1073       C  0.59518213  0.26047751  0.14026762     0.24960
C1074       C  0.59835802  0.26525515  0.17444048    -0.23150
C1075       C  0.56947612  0.26859112  0.19375166     0.19870
C1076       C  0.53789888  0.26551479  0.17941873     0.24900
C1077       C  0.53415194  0.25707718  0.14508087    -0.23090
C1078       C  0.56399446  0.25785957  0.12586730     0.19810
F1079       F  0.56337882  0.25819962  0.09225741    -0.13050
F1080       F  0.62242596  0.25995651  0.12013990    -0.15410
F1081       F  0.51252434  0.27590127  0.19883707    -0.15410
F1082       F  0.57164693  0.27563228  0.22669816    -0.13050
C1083       C  0.01534684  0.31560871  0.87744356     0.24960
C1084       C  0.00966062  0.28600774  0.89644324    -0.23150
C1085       C  0.01135603  0.28831716  0.93167468     0.19870
C1086       C  0.01669468  0.31918037  0.94680008     0.24900
C1087       C  0.02067293  0.34821302  0.92730782    -0.23090
C1088       C  0.02042728  0.34590078  0.89259203     0.19810
F1089       F  0.02500737  0.37327723  0.87298954    -0.13050
F1090       F  0.01429647  0.31546963  0.84357925    -0.15410
F1091       F  0.01693340  0.32083581  0.98058766    -0.15410
F1092       F  0.00884014  0.26114368  0.95174329    -0.13050
C1093       C  0.01249993  0.16092464  0.90602994     0.24960
C1094       C  0.98409911  0.15609614  0.92561478    -0.23150
C1095       C  0.96357449  0.18372397  0.93195861     0.19870
C1096       C  0.97108258  0.21522266  0.91808030     0.24900
C1097       C  0.99913121  0.22012390  0.89687695    -0.23090
C1098       C  0.01904090  0.19120885  0.89076120     0.19810
F1099       F  0.04358056  0.18972935  0.86760714    -0.13050
F1100       F  0.03415861  0.13564367  0.90023816    -0.15410
F1101       F  0.94977818  0.24064783  0.92410571    -0.15410
F1102       F  0.93559118  0.18016213  0.95065302    -0.13050
C1103       C  0.07019812  0.24225072  0.80549282     0.24960
C1104       C  0.09934672  0.23984856  0.82464848    -0.23150
C1105       C  0.09732394  0.24504367  0.85898651     0.19870
C1106       C  0.06686956  0.25025685  0.87433908     0.24900
C1107       C  0.03663258  0.25125090  0.85588135    -0.23090
C1108       C  0.03931234  0.24904359  0.82066545     0.19810
F1109       F  0.01283566  0.25390170  0.80048812    -0.13050
F1110       F  0.07173204  0.23902347  0.77186666    -0.15410
F1111       F  0.06679864  0.25150968  0.90815713    -0.15410
F1112       F  0.12487459  0.24335531  0.87839374    -0.13050
C1113       C  0.23477304  0.36241893  0.90172099     0.24960
C1114       C  0.23476907  0.32798446  0.89861572    -0.23150
C1115       C  0.24052493  0.30783346  0.92697830     0.19870
C1116       C  0.24665094  0.32203261  0.95811695     0.24900
C1117       C  0.24582053  0.35694050  0.96165571    -0.23090
C1118       C  0.23988492  0.37668973  0.93257545     0.19810
F1119       F  0.24006681  0.41035193  0.93391216    -0.13050
F1120       F  0.22960171  0.38247859  0.87473493    -0.15410
F1121       F  0.25468507  0.30150879  0.98390611    -0.15410
F1122       F  0.24184669  0.27431540  0.92420721    -0.13050
C1123       C  0.23671856  0.15460646  0.59450676     0.24960
C1124       C  0.26533823  0.17342765  0.59993619    -0.23150
C1125       C  0.28296296  0.18476173  0.57180329     0.19870
C1126       C  0.27395847  0.17520410  0.53957597     0.24900
C1127       C  0.24796024  0.15198908  0.53376461    -0.23090
C1128       C  0.22742415  0.14538076  0.56240227     0.19810
F1129       F  0.19685285  0.13173578  0.56049213    -0.13050
F1130       F  0.21640622  0.14587267  0.62029399    -0.15410
F1131       F  0.28934656  0.19178080  0.51459856    -0.15410
F1132       F  0.30876201  0.20605274  0.57508986    -0.13050
C1133       C  0.53200224  0.32258682  0.57054458     0.24960
C1134       C  0.50498470  0.34460594  0.57364511    -0.23150
C1135       C  0.47455619  0.33162637  0.58513692     0.19870
C1136       C  0.47268333  0.29957428  0.59839139     0.24900
C1137       C  0.50171906  0.27987062  0.60247194    -0.23090
C1138       C  0.52987936  0.29005188  0.58353742     0.19810
F1139       F  0.55691158  0.27009528  0.58090408    -0.13050
F1140       F  0.56102951  0.33285220  0.55658011    -0.15410
F1141       F  0.44206389  0.28834364  0.60700293    -0.15410
F1142       F  0.44620217  0.34998473  0.58384212    -0.13050
C1143       C  0.47416574  0.20837705  0.58567822     0.24960
C1144       C  0.50326557  0.21813518  0.60284922    -0.23150
C1145       C  0.53184055  0.19814388  0.59760950     0.19870
C1146       C  0.52898416  0.16613813  0.58522857     0.24900
C1147       C  0.49790171  0.15355320  0.57575138    -0.23090
C1148       C  0.47106935  0.17593989  0.57357545     0.19810
F1149       F  0.44132669  0.16613282  0.56141618    -0.13050
F1150       F  0.44723702  0.22859532  0.58407392    -0.15410
F1151       F  0.55701664  0.14744050  0.58278844    -0.15410
F1152       F  0.56290500  0.20907562  0.60426330    -0.13050
C1153       C  0.45059737  0.22209768  0.65584768     0.24960
C1154       C  0.47300157  0.24894091  0.65145422    -0.23150
C1155       C  0.46582088  0.27794621  0.66994645     0.19870
C1156       C  0.43424946  0.28301982  0.68392867     0.24900
C1157       C  0.40963736  0.25854481  0.68149138    -0.23090
C1158       C  0.41891776  0.22730546  0.66932711     0.19810
F1159       F  0.39740348  0.20145484  0.67081324    -0.13050
F1160       F  0.45899714  0.19054510  0.64795989    -0.15410
F1161       F  0.42724271  0.31279402  0.69781869    -0.15410
F1162       F  0.48788697  0.30321774  0.67108508    -0.13050
C1163       C  0.23158757  0.83256060  0.95529780     0.24960
C1164       C  0.25433360  0.85712404  0.96571409    -0.23150
C1165       C  0.27842691  0.86769523  0.94127642     0.19870
C1166       C  0.28221579  0.85164321  0.91103897     0.24900
C1167       C  0.26099551  0.82620490  0.90235093    -0.23090
C1168       C  0.23521392  0.81703409  0.92422723     0.19810
F1169       F  0.21314021  0.79346043  0.91521510    -0.13050
F1170       F  0.20534431  0.82387180  0.97479317    -0.15410
F1171       F  0.30599679  0.86221741  0.88924843    -0.15410
F1172       F  0.29733044  0.89522604  0.94468535    -0.13050
C1173       C  0.28707301  0.92890826  0.01073882     0.24960
C1174       C  0.28288791  0.89425917  0.00675362    -0.23150
C1175       C  0.31180447  0.87383704  0.00958382     0.19870
C1176       C  0.34317790  0.88729007  0.01266306     0.24900
C1177       C  0.34727293  0.92147237  0.01400915    -0.23090
C1178       C  0.31915964  0.94230083  0.01414589     0.19810
F1179       F  0.32288690  0.97566384  0.01618391    -0.13050
F1180       F  0.26074962  0.94991493  0.01176268    -0.15410
F1181       F  0.36998392  0.86668271  0.01330402    -0.15410
F1182       F  0.31000464  0.84036683  0.00681349    -0.13050
C1183       C  0.18608568  0.88573379  0.00979426     0.24960
C1184       C  0.21649982  0.89639976  0.99451457    -0.23150
C1185       C  0.21355182  0.92212520  0.97013403     0.19870
C1186       C  0.18273282  0.93780844  0.96357322     0.24900
C1187       C  0.15356620  0.92772303  0.98045959    -0.23090
C1188       C  0.15613854  0.90169301  0.00383864     0.19810
F1189       F  0.12914872  0.89029177  0.02089577    -0.13050
F1190       F  0.18353706  0.85792592  0.02908337    -0.15410
F1191       F  0.18145749  0.96232676  0.94008168    -0.15410
F1192       F  0.24028857  0.93161486  0.95173223    -0.13050
C1193       C  0.24742155  0.82080242  0.03672674     0.24960
C1194       C  0.24619931  0.85583855  0.03294559    -0.23150
C1195       C  0.24128095  0.87471078  0.06241052     0.19870
C1196       C  0.23649937  0.85970882  0.09332790     0.24900
C1197       C  0.23609009  0.82523089  0.09655870    -0.23090
C1198       C  0.24164348  0.80578489  0.06813682     0.19810
F1199       F  0.24282407  0.77220312  0.07101447    -0.13050
F1200       F  0.25537819  0.80084674  0.01096329    -0.15410
F1201       F  0.23119460  0.87924864  0.12021002    -0.15410
F1202       F  0.23955119  0.90833689  0.06109616    -0.13050
C1203       C  0.37174252  0.93730592  0.24722032     0.24960
C1204       C  0.35149366  0.96617306  0.25087877    -0.23150
C1205       C  0.31667517  0.95995672  0.25242981     0.19870
C1206       C  0.30361590  0.92920114  0.24286853     0.24900
C1207       C  0.32461431  0.90246942  0.23525710    -0.23090
C1208       C  0.35874993  0.90661160  0.23871293     0.19810
F1209       F  0.37986315  0.88061676  0.23438988    -0.13050
F1210       F  0.40454733  0.93793499  0.25391761    -0.15410
F1211       F  0.27025873  0.92453331  0.24456007    -0.15410
F1212       F  0.29538519  0.97963533  0.26923526    -0.13050
C1213       C  0.19173775  0.57351639  0.25814483     0.24960
C1214       C  0.17175555  0.60020057  0.26804367    -0.23150
C1215       C  0.13740521  0.59643309  0.26774157     0.19870
C1216       C  0.12331651  0.56600242  0.26006654     0.24900
C1217       C  0.14285145  0.53722088  0.25353492    -0.23090
C1218       C  0.17754563  0.54313006  0.24916195     0.19810
F1219       F  0.19749410  0.52294788  0.23126256    -0.13050
F1220       F  0.22492399  0.57790391  0.25387258    -0.15410
F1221       F  0.08998299  0.56567177  0.25694142    -0.15410
F1222       F  0.11713397  0.62259725  0.27431953    -0.13050
C1223       C  0.03740050  0.74585550  0.17731511     0.24960
C1224       C  0.03573245  0.74948788  0.14209670    -0.23150
C1225       C  0.06654713  0.75092172  0.12440453     0.19870
C1226       C  0.09671392  0.74646104  0.14039030     0.24900
C1227       C  0.09792588  0.73986232  0.17471202    -0.23090
C1228       C  0.06806479  0.74002907  0.19314760     0.19810
F1229       F  0.06858514  0.73551992  0.22675276    -0.13050
F1230       F  0.01010930  0.74856810  0.19694525    -0.15410
F1231       F  0.12484206  0.74699914  0.12153113    -0.15410
F1232       F  0.06748469  0.75386658  0.09063963    -0.13050
C1233       C  0.96472639  0.68319813  0.06502851     0.24960
C1234       C  0.98622447  0.65595887  0.07020073    -0.23150
C1235       C  0.01509689  0.66103601  0.08865060     0.19870
C1236       C  0.02113602  0.69095680  0.10416967     0.24900
C1237       C  0.99994113  0.71934893  0.09958734    -0.23090
C1238       C  0.97164811  0.71439326  0.07906388     0.19810
F1239       F  0.94942926  0.73936680  0.07407035    -0.13050
F1240       F  0.93627822  0.67945692  0.04747639    -0.15410
F1241       F  0.04666336  0.68947201  0.12598259    -0.15410
F1242       F  0.03772026  0.63624851  0.09312085    -0.13050
C1243       C  0.01951867  0.84511377  0.10588571     0.24960
C1244       C  0.02013585  0.84861466  0.07119524    -0.23150
C1245       C  0.01618033  0.82028196  0.05147078     0.19870
C1246       C  0.01071449  0.78892419  0.06628394     0.24900
C1247       C  0.00881514  0.78531200  0.10146952    -0.23090
C1248       C  0.01430572  0.81425738  0.12076211     0.19810
F1249       F  0.01288297  0.81291466  0.15461737    -0.13050
F1250       F  0.02395308  0.87179879  0.12570784    -0.15410
F1251       F  0.00832381  0.76254107  0.04589574    -0.15410
F1252       F  0.01665102  0.82307406  0.01769489    -0.13050
C1253       C  0.25966408  0.67518846  0.54340368     0.24960
C1254       C  0.24394888  0.64488088  0.53536409    -0.23150
C1255       C  0.22477249  0.62912724  0.56113280     0.19870
C1256       C  0.21993014  0.64394326  0.59201583     0.24900
C1257       C  0.23498121  0.67406889  0.59911640    -0.23090
C1258       C  0.25497576  0.68956471  0.57480750     0.19810
F1259       F  0.27130653  0.71795189  0.58208363    -0.13050
F1260       F  0.28138862  0.69001298  0.52204955    -0.15410
F1261       F  0.20104754  0.62828423  0.61550307    -0.15410
F1262       F  0.21220147  0.59820084  0.55750727    -0.13050
C1263       C  0.32722037  0.57212274  0.47950183     0.24960
C1264       C  0.34712392  0.57487791  0.50797341    -0.23150
C1265       C  0.33264012  0.58677804  0.53721050     0.19870
C1266       C  0.30044329  0.59999861  0.53707119     0.24900
C1267       C  0.28136553  0.60213359  0.50702290    -0.23090
C1268       C  0.29462597  0.58467256  0.47920799     0.19810
F1269       F  0.27756213  0.58353056  0.45008148    -0.13050
F1270       F  0.33979355  0.55845496  0.45134287    -0.15410
F1271       F  0.28950851  0.61149593  0.56672917    -0.15410
F1272       F  0.35053191  0.58774626  0.56581638    -0.13050
C1273       C  0.21454708  0.57292096  0.48762807     0.24960
C1274       C  0.21738132  0.60793216  0.49241659    -0.23150
C1275       C  0.18646637  0.62553968  0.49308897     0.19870
C1276       C  0.15644196  0.61089152  0.48475746     0.24900
C1277       C  0.15443817  0.57692200  0.47897978    -0.23090
C1278       C  0.18381855  0.55806924  0.48037350     0.19810
F1279       F  0.18251220  0.52455944  0.47755172    -0.13050
F1280       F  0.23989153  0.55165085  0.49395782    -0.15410
F1281       F  0.12855783  0.63000989  0.48499530    -0.15410
F1282       F  0.18326648  0.65511858  0.50824854    -0.13050
C1283       C  0.23922711  0.68498642  0.42462836     0.24960
C1284       C  0.26792612  0.67789590  0.40624246    -0.23150
C1285       C  0.29510675  0.66421303  0.42317531     0.19870
C1286       C  0.29161568  0.65308211  0.45631887     0.24900
C1287       C  0.25975836  0.65189732  0.47219537    -0.23090
C1288       C  0.23626939  0.67421117  0.45790132     0.19810
F1289       F  0.21486850  0.69133963  0.47713018    -0.13050
F1290       F  0.21532684  0.70495460  0.41134101    -0.15410
F1291       F  0.31986903  0.64561800  0.47319256    -0.15410
F1292       F  0.32511197  0.66185657  0.40776843    -0.13050
C1293       C  0.60991807  0.48792825  0.15429083     0.24960
C1294       C  0.57605725  0.48094150  0.15223721    -0.23150
C1295       C  0.55760292  0.47761941  0.18214575     0.19870
C1296       C  0.57263232  0.48248763  0.21344916     0.24900
C1297       C  0.60675641  0.49074670  0.21551510    -0.23090
C1298       C  0.62496138  0.49220307  0.18494997     0.19810
F1299       F  0.65785858  0.49927406  0.18439695    -0.13050
F1300       F  0.62904225  0.49047046  0.12636511    -0.15410
F1301       F  0.55370770  0.47803517  0.24115342    -0.15410
F1302       F  0.52475828  0.47026271  0.18114708    -0.13050
C1303       C  0.58128090  0.52115216  0.28881148     0.24960
C1304       C  0.60987243  0.50106594  0.28319912    -0.23150
C1305       C  0.62723234  0.49012728  0.31248600     0.19870
C1306       C  0.61538556  0.49611199  0.34426629     0.24900
C1307       C  0.58558975  0.51303368  0.34934181    -0.23090
C1308       C  0.56878974  0.52617539  0.32141891     0.19810
F1309       F  0.53997970  0.54326170  0.32556257    -0.13050
F1310       F  0.56530033  0.53626806  0.26310994    -0.15410
F1311       F  0.63373951  0.48514644  0.37062238    -0.15410
F1312       F  0.65670069  0.47373253  0.31148634    -0.13050
C1313       C  0.62849958  0.43465465  0.25888817     0.24960
C1314       C  0.64685189  0.46355678  0.24960381    -0.23150
C1315       C  0.68124816  0.45919979  0.24294109     0.19870
C1316       C  0.69659996  0.42811800  0.24851137     0.24900
C1317       C  0.67788207  0.40053874  0.25924692    -0.23090
C1318       C  0.64372986  0.40405681  0.26361013     0.19810
F1319       F  0.62495063  0.37783329  0.27377800    -0.13050
F1320       F  0.59548177  0.43622854  0.26547328    -0.15410
F1321       F  0.72958150  0.42465931  0.24224843    -0.15410
F1322       F  0.70011523  0.48408074  0.23014993    -0.13050
C1323       C  0.76006029  0.37342650  0.43516120     0.24960
C1324       C  0.75419957  0.35461504  0.46498953    -0.23150
C1325       C  0.75177566  0.31967734  0.46171094     0.19870
C1326       C  0.75746305  0.30465702  0.43061628     0.24900
C1327       C  0.76420484  0.32395695  0.40182795    -0.23090
C1328       C  0.76477806  0.35842828  0.40446475     0.19810
F1329       F  0.77096742  0.37790935  0.37724622    -0.13050
F1330       F  0.76254355  0.40696706  0.43583552    -0.15410
F1331       F  0.75499548  0.27118227  0.42838148    -0.15410
F1332       F  0.74265641  0.29979289  0.48762562    -0.13050
C1333       C  0.68836530  0.37134350  0.49144666     0.24960
C1334       C  0.71691635  0.39224060  0.49090050    -0.23150
C1335       C  0.71149297  0.42653825  0.48459341     0.19870
C1336       C  0.67880217  0.43923401  0.48221466     0.24900
C1337       C  0.65121650  0.41806473  0.48597559    -0.23090
C1338       C  0.65645197  0.38411200  0.48969948     0.19810
F1339       F  0.63031095  0.36298977  0.49235024    -0.13050
F1340       F  0.69111761  0.33810192  0.49642206    -0.15410
F1341       F  0.67408473  0.47234488  0.47765722    -0.15410
F1342       F  0.73716552  0.44784669  0.48047295    -0.13050
C1343       C  0.81493110  0.38140774  0.48987547     0.24960
C1344       C  0.78427751  0.39485026  0.50210636    -0.23150
C1345       C  0.78729901  0.42240899  0.52361719     0.19870
C1346       C  0.81848471  0.43694848  0.53015359     0.24900
C1347       C  0.84807730  0.42377307  0.51655791    -0.23090
C1348       C  0.84546166  0.39582344  0.49636429     0.19810
F1349       F  0.87287240  0.38107206  0.48320902    -0.13050
F1350       F  0.81676879  0.35257632  0.47286667    -0.15410
F1351       F  0.81957346  0.46364599  0.55038786    -0.15410
F1352       F  0.76037022  0.43500485  0.53943270    -0.13050
C1353       C  0.37109926  0.56035800  0.72441208     0.24960
C1354       C  0.35700535  0.53453834  0.74500204    -0.23150
C1355       C  0.32950885  0.54386028  0.76513327     0.19870
C1356       C  0.31436468  0.57521111  0.76124541     0.24900
C1357       C  0.32759373  0.59890217  0.73899176    -0.23090
C1358       C  0.35630887  0.59146476  0.72132660     0.19810
F1359       F  0.37047743  0.61473153  0.70102806    -0.13050
F1360       F  0.40012908  0.55663920  0.70752113    -0.15410
F1361       F  0.28728275  0.58281773  0.77997630    -0.15410
F1362       F  0.31736505  0.52315872  0.78907215    -0.13050
C1363       C  0.37501039  0.43771373  0.75874458     0.24960
C1364       C  0.35578470  0.46689596  0.75225123    -0.23150
C1365       C  0.32101341  0.46269749  0.74851848     0.19870
C1366       C  0.30651505  0.43120063  0.75311876     0.24900
C1367       C  0.32628000  0.40305502  0.76002932    -0.23090
C1368       C  0.36056677  0.40667576  0.76231849     0.19810
F1369       F  0.38033104  0.38007539  0.76923211    -0.13050
F1370       F  0.40837241  0.43926861  0.76286935    -0.15410
F1371       F  0.27317615  0.42798526  0.74952683    -0.15410
F1372       F  0.30086554  0.48809506  0.73912100    -0.13050
C1373       C  0.42318146  0.52571958  0.78529877     0.24960
C1374       C  0.39531673  0.50446385  0.78248417    -0.23150
C1375       C  0.38142487  0.49254220  0.81329743     0.19870
C1376       C  0.39566684  0.49920722  0.84392629     0.24900
C1377       C  0.42408786  0.51893961  0.84632876    -0.23090
C1378       C  0.43770308  0.53220388  0.81653725     0.19810
F1379       F  0.46490127  0.55194532  0.81746703    -0.13050
F1380       F  0.43622527  0.54116907  0.75809486    -0.15410
F1381       F  0.38038827  0.48662148  0.87159354    -0.15410
F1382       F  0.35252705  0.47538259  0.81506357    -0.13050
C1383       C  0.42735726  0.48643732  0.70997246     0.24960
C1384       C  0.39316825  0.49356495  0.71501758    -0.23150
C1385       C  0.37248726  0.49413688  0.68620234     0.19870
C1386       C  0.38537416  0.49103779  0.65435632     0.24900
C1387       C  0.41922886  0.48613135  0.64946032    -0.23090
C1388       C  0.44015390  0.48279897  0.67735767     0.19810
F1389       F  0.47316338  0.47735481  0.67296720    -0.13050
F1390       F  0.44846402  0.48247296  0.73594411    -0.15410
F1391       F  0.36449769  0.49357794  0.62789104    -0.15410
F1392       F  0.33936503  0.49993559  0.68854783    -0.13050
C1393       C  0.77160426  0.15782470  0.05308064     0.24960
C1394       C  0.74539555  0.15035926  0.03033618    -0.23150
C1395       C  0.71306980  0.16051337  0.04117596     0.19870
C1396       C  0.70701708  0.17050014  0.07424088     0.24900
C1397       C  0.73311119  0.17257451  0.09722814    -0.23090
C1398       C  0.76537271  0.16775400  0.08568873     0.19810
F1399       F  0.79158343  0.17448025  0.10571719    -0.13050
F1400       F  0.80389984  0.15868439  0.04449088    -0.15410
F1401       F  0.67539107  0.17723545  0.08399602    -0.15410
F1402       F  0.68675923  0.16000364  0.02016723    -0.13050
C1403       C  0.66316759  0.09410206  0.96787199     0.24960
C1404       C  0.65190762  0.07629227  0.99552348    -0.23150
C1405       C  0.67291235  0.07258802  0.02324114     0.19870
C1406       C  0.70466095  0.08703972  0.02337606     0.24900
C1407       C  0.71672021  0.10588060  0.99566853    -0.23090
C1408       C  0.69385698  0.10983609  0.96822962     0.19810
F1409       F  0.69784537  0.13222239  0.94301291    -0.13050
F1410       F  0.64262831  0.09974491  0.94155739    -0.15410
F1411       F  0.72267802  0.08471878  0.05187498    -0.15410
F1412       F  0.66232130  0.05559751  0.05072061    -0.13050
C1413       C  0.78540539  0.07155294  0.01115953     0.24960
C1414       C  0.78318279  0.10602260  0.00309931    -0.23150
C1415       C  0.81411825  0.12192038  0.99558016     0.19870
C1416       C  0.84439158  0.10690409  0.00185141     0.24900
C1417       C  0.84619175  0.07413192  0.01342141    -0.23090
C1418       C  0.81643411  0.05624583  0.01721961     0.19810
F1419       F  0.81733719  0.02341821  0.02520414    -0.13050
F1420       F  0.75861437  0.05146828  0.01086007    -0.15410
F1421       F  0.87221095  0.12540151  0.99705764    -0.15410
F1422       F  0.81578467  0.15375255  0.98403870    -0.13050
C1423       C  0.12566315  0.93946907  0.76798118     0.24960
C1424       C  0.14393919  0.96646951  0.75346587    -0.23150
C1425       C  0.17605656  0.95875729  0.74086647     0.19870
C1426       C  0.19030134  0.92731268  0.74643867     0.24900
C1427       C  0.17207259  0.90194552  0.76213002    -0.23090
C1428       C  0.13951915  0.90801704  0.77195259     0.19810
F1429       F  0.12108654  0.88340344  0.78615737    -0.13050
F1430       F  0.09407907  0.94307134  0.77922678    -0.15410
F1431       F  0.22156514  0.92118389  0.73519205    -0.15410
F1432       F  0.19385285  0.98076584  0.72243787    -0.13050
C1433       C  0.12843097  0.06288456  0.73441890     0.24960
C1434       C  0.14583936  0.03424774  0.74657680    -0.23150
C1435       C  0.17896716  0.03923025  0.75747173     0.19870
C1436       C  0.19440916  0.07023942  0.75303010     0.24900
C1437       C  0.17678998  0.09737783  0.73959103    -0.23090
C1438       C  0.14363287  0.09355752  0.73111321     0.19810
F1439       F  0.12594781  0.11958382  0.71847760    -0.13050
F1440       F  0.09651292  0.06127532  0.72407467    -0.15410
F1441       F  0.22625066  0.07414771  0.76319853    -0.15410
F1442       F  0.19642444  0.01522939  0.77363536    -0.13050
C1443       C  0.11487777  0.00122963  0.65291871     0.24960
C1444       C  0.08289339  0.98910705  0.64851956    -0.23150
C1445       C  0.06479213  0.97802513  0.67653512     0.19870
C1446       C  0.07795218  0.98101692  0.70881992     0.24900
C1447       C  0.10916736  0.99644883  0.71386098    -0.23090
C1448       C  0.12796315  0.00441904  0.68453746     0.19810
F1449       F  0.15930360  0.01646913  0.68574093    -0.13050
F1450       F  0.13397404  0.01009660  0.62622572    -0.15410
F1451       F  0.05975858  0.96871302  0.73456011    -0.15410
F1452       F  0.03394497  0.96515924  0.67279987    -0.13050
C1453       C  0.07252891  0.02020678  0.78267917     0.24960
C1454       C  0.10542927  0.00734444  0.78104006    -0.23150
C1455       C  0.12254097  0.00351338  0.81185476     0.19870
C1456       C  0.10764945  0.01032527  0.84212752     0.24900
C1457       C  0.07478308  0.02156843  0.84372992    -0.23090
C1458       C  0.05743442  0.02688519  0.81369072     0.19810
F1459       F  0.02563768  0.03819875  0.81422508    -0.13050
F1460       F  0.05476942  0.02736770  0.75491212    -0.15410
F1461       F  0.12608873  0.00585563  0.87015793    -0.15410
F1462       F  0.15424645  0.99218474  0.81329527    -0.13050
C1463       C  0.46350542  0.76202889  0.31909865     0.24960
C1464       C  0.46566339  0.75832933  0.35418870    -0.23150
C1465       C  0.43553399  0.76049521  0.37293815     0.19870
C1466       C  0.40507837  0.76434946  0.35767096     0.24900
C1467       C  0.40295719  0.76666319  0.32305417    -0.23090
C1468       C  0.43232356  0.76606325  0.30377261     0.19810
F1469       F  0.43078431  0.76861199  0.27002381    -0.13050
F1470       F  0.49099524  0.76273489  0.29950950    -0.15410
F1471       F  0.37741143  0.76598280  0.37714807    -0.15410
F1472       F  0.43539350  0.75718267  0.40668901    -0.13050
C1473       C  0.47109600  0.69388069  0.38363958     0.24960
C1474       C  0.49413763  0.71884554  0.39414347    -0.23150
C1475       C  0.51744342  0.70876513  0.41874737     0.19870
C1476       C  0.51693076  0.67650990  0.43252575     0.24900
C1477       C  0.49266904  0.65366161  0.42290060    -0.23090
C1478       C  0.46942643  0.66294641  0.39914186     0.19810
F1479       F  0.44700082  0.64051860  0.38813288    -0.13050
F1480       F  0.45192634  0.69699445  0.35602691    -0.15410
F1481       F  0.54059644  0.66734957  0.45486714    -0.15410
F1482       F  0.54197935  0.72943930  0.42835049    -0.13050
C1483       C  0.50186484  0.84680436  0.38891168     0.24960
C1484       C  0.50019973  0.84992344  0.42332689    -0.23150
C1485       C  0.49673805  0.82142072  0.44363581     0.19870
C1486       C  0.49480279  0.78973178  0.42931228     0.24900
C1487       C  0.49776805  0.78617392  0.39427673    -0.23090
C1488       C  0.50114116  0.81579137  0.37461442     0.19810
F1489       F  0.50492081  0.81466022  0.34099153    -0.13050
F1490       F  0.50470193  0.87412494  0.36887462    -0.15410
F1491       F  0.48915706  0.76331629  0.44975486    -0.15410
F1492       F  0.49416786  0.82440806  0.47722174    -0.13050
C1493       C  0.80929180  0.61668569  0.97535654     0.24960
C1494       C  0.78306620  0.60173986  0.99457517    -0.23150
C1495       C  0.79164249  0.57284916  0.01330900     0.19870
C1496       C  0.82258827  0.55724687  0.00885752     0.24900
C1497       C  0.84645319  0.57126011  0.98744179    -0.23090
C1498       C  0.83986050  0.60127582  0.97149299     0.19810
F1499       F  0.86358359  0.61624797  0.95240630    -0.13050
F1500       F  0.80648320  0.64711228  0.96071659    -0.15410
F1501       F  0.82979325  0.52920501  0.02655827    -0.15410
F1502       F  0.77081730  0.55986166  0.03659262    -0.13050
C1503       C  0.68666264  0.62087986  0.00634262     0.24960
C1504       C  0.71545555  0.60126153  0.99980326    -0.23150
C1505       C  0.71088227  0.56657621  0.99639190     0.19870
C1506       C  0.67964961  0.55233975  0.00288358     0.24900
C1507       C  0.65222623  0.57238726  0.01111564    -0.23090
C1508       C  0.65590281  0.60668806  0.01185359     0.19810
F1509       F  0.62971485  0.62671555  0.01924698    -0.13050
F1510       F  0.68860614  0.65427829  0.00954314    -0.15410
F1511       F  0.67591667  0.51904359  0.00000444    -0.15410
F1512       F  0.73565530  0.54626845  0.98610299    -0.13050
C1513       C  0.73936004  0.62154634  0.06254331     0.24960
C1514       C  0.75234982  0.63778748  0.03321226    -0.23150
C1515       C  0.77330039  0.66541509  0.03902282     0.19870
C1516       C  0.77749528  0.67806279  0.07154103     0.24900
C1517       C  0.76202104  0.66268170  0.09926619    -0.23090
C1518       C  0.74380095  0.63393406  0.09415123     0.19810
F1519       F  0.73056069  0.61667257  0.12035958    -0.13050
F1520       F  0.72281146  0.59231293  0.06197212    -0.15410
F1521       F  0.79634667  0.70550682  0.07577379    -0.15410
F1522       F  0.79039605  0.67999759  0.01367707    -0.13050
C1523       C  0.86650065  0.90064361  0.24614728     0.24960
C1524       C  0.83347111  0.89651146  0.25508139    -0.23150
C1525       C  0.81384855  0.92485174  0.26057791     0.19870
C1526       C  0.82754241  0.95704104  0.25754330     0.24900
C1527       C  0.86215653  0.96174087  0.25127141    -0.23090
C1528       C  0.88021497  0.93193682  0.24328895     0.19810
F1529       F  0.91194743  0.93222922  0.23159081    -0.13050
F1530       F  0.88604767  0.87388695  0.23962081    -0.15410
F1531       F  0.80573538  0.98257421  0.25766617    -0.15410
F1532       F  0.78081547  0.92151477  0.26660597    -0.13050
C1533       C  0.56100391  0.76760887  0.36923591     0.24960
C1534       C  0.53276108  0.75015742  0.35686650    -0.23150
C1535       C  0.53965001  0.72573123  0.33251349     0.19870
C1536       C  0.57202840  0.72150056  0.31924024     0.24900
C1537       C  0.59863729  0.74098932  0.33048254    -0.23090
C1538       C  0.59240095  0.76364939  0.35584905     0.19810
F1539       F  0.61740066  0.78140979  0.36957890    -0.13050
F1540       F  0.56012333  0.78702916  0.39661702    -0.15410
F1541       F  0.57722808  0.69837072  0.29547362    -0.15410
F1542       F  0.51529482  0.70517537  0.32215769    -0.13050
C1543       C  0.68686733  0.57211721  0.25952345     0.24960
C1544       C  0.67103052  0.59681110  0.24048735    -0.23150
C1545       C  0.64215629  0.58936767  0.22348206     0.19870
C1546       C  0.62889413  0.55761544  0.22524332     0.24900
C1547       C  0.64506172  0.53114445  0.24323714    -0.23090
C1548       C  0.67388863  0.53988673  0.26140554     0.19810
F1549       F  0.68922377  0.51802806  0.28213380    -0.13050
F1550       F  0.71445957  0.57953803  0.27723293    -0.15410
F1551       F  0.59888540  0.55404303  0.21048885    -0.15410
F1552       F  0.62540856  0.61364438  0.20668161    -0.13050
C1553       C  0.92606888  0.72632599  0.17442102     0.24960
C1554       C  0.90429426  0.75332724  0.17007613    -0.23150
C1555       C  0.91489594  0.78082929  0.15172622     0.19870
C1556       C  0.94579588  0.78093209  0.13604747     0.24900
C1557       C  0.96939489  0.75444436  0.14095422    -0.23090
C1558       C  0.95818869  0.72699672  0.16054451     0.19810
F1559       F  0.97781000  0.69983063  0.16495019    -0.13050
F1560       F  0.91609071  0.69900363  0.19185548    -0.15410
F1561       F  0.94977151  0.80579934  0.11332993    -0.15410
F1562       F  0.89374614  0.80662231  0.14591169    -0.13050
C1563       C  0.80145931  0.89018188  0.46844136     0.24960
C1564       C  0.77722392  0.89161270  0.49504760    -0.23150
C1565       C  0.78754387  0.90893147  0.52397968     0.19870
C1566       C  0.81915589  0.92373684  0.52585027     0.24900
C1567       C  0.84140924  0.92239602  0.49880709    -0.23090
C1568       C  0.83166779  0.90650960  0.46998681     0.19810
F1569       F  0.85335147  0.90324848  0.44410507    -0.13050
F1570       F  0.79948677  0.86963393  0.44206768    -0.15410
F1571       F  0.82828999  0.93876422  0.55445825    -0.15410
F1572       F  0.76827444  0.90881683  0.55188424    -0.13050
C1573       C  0.64934556  0.88375104  0.49369199     0.24960
C1574       C  0.64498482  0.91531546  0.50661386    -0.23150
C1575       C  0.67320739  0.93422757  0.51398982     0.19870
C1576       C  0.70547038  0.92107860  0.50938321     0.24900
C1577       C  0.71022987  0.88761255  0.49932837    -0.23090
C1578       C  0.68076561  0.87051352  0.48940518     0.19810
F1579       F  0.68164800  0.83913582  0.47737559    -0.13050
F1580       F  0.62272818  0.86484810  0.48567993    -0.15410
F1581       F  0.73111466  0.94227209  0.51277520    -0.15410
F1582       F  0.66962870  0.96614637  0.52383168    -0.13050
C1583       C  0.73494776  0.87357976  0.43360332     0.24960
C1584       C  0.74236947  0.85241931  0.46147218    -0.23150
C1585       C  0.74625928  0.81805264  0.45557413     0.19870
C1586       C  0.74373318  0.80587180  0.42298910     0.24900
C1587       C  0.73758931  0.82759836  0.39597900    -0.23090
C1588       C  0.73298481  0.86128701  0.40156386     0.19810
F1589       F  0.72751999  0.88262440  0.37563159    -0.13050
F1590       F  0.73189313  0.90693725  0.43724855    -0.15410
F1591       F  0.74851540  0.77301752  0.41758650    -0.15410
F1592       F  0.75288006  0.79623434  0.48071238    -0.13050
C1593       C  0.87743014  0.50932138  0.68764675     0.24960
C1594       C  0.89625216  0.50804282  0.71768211    -0.23150
C1595       C  0.93075042  0.51460709  0.71485798     0.19870
C1596       C  0.94553921  0.51988169  0.68324546     0.24900
C1597       C  0.92639267  0.51894163  0.65388322    -0.23090
C1598       C  0.89217433  0.51430486  0.65672253     0.19810
F1599       F  0.87250540  0.51451778  0.62926621    -0.13050
F1600       F  0.84418729  0.50404413  0.68784077    -0.15410
F1601       F  0.97879155  0.52503604  0.68135297    -0.15410
F1602       F  0.95035231  0.51679310  0.74208750    -0.13050
C1603       C  0.92212539  0.47320546  0.78887590     0.24960
C1604       C  0.89421942  0.49444434  0.78491546    -0.23150
C1605       C  0.87909193  0.50577494  0.81509921     0.19870
C1606       C  0.89314225  0.49983028  0.84618073     0.24900
C1607       C  0.92232648  0.48112202  0.84956008    -0.23090
C1608       C  0.93637830  0.46733308  0.82049602     0.19810
F1609       F  0.96391996  0.44788405  0.82247609    -0.13050
F1610       F  0.93574700  0.45758003  0.76241090    -0.15410
F1611       F  0.87726817  0.51238693  0.87323519    -0.15410
F1612       F  0.84964386  0.52227403  0.81560203    -0.13050
C1613       C  0.87237882  0.44145388  0.72498772     0.24960
C1614       C  0.85742446  0.46695584  0.74484153    -0.23150
C1615       C  0.82850548  0.45767060  0.76302709     0.19870
C1616       C  0.81352455  0.42651100  0.75845180     0.24900
C1617       C  0.82805669  0.40298492  0.73730922    -0.23090
C1618       C  0.85767373  0.41058311  0.72119332     0.19810
F1619       F  0.87291996  0.38760042  0.70184098    -0.13050
F1620       F  0.90226186  0.44515482  0.70963791    -0.15410
F1621       F  0.78545133  0.41881274  0.77571317    -0.15410
F1622       F  0.81492894  0.47808823  0.78595920    -0.13050
C1623       C  0.58889715  0.27025605  0.66577388     0.24960
C1624       C  0.59842674  0.23914672  0.67882737    -0.23150
C1625       C  0.57404338  0.21442210  0.68198610     0.19870
C1626       C  0.54232034  0.21930217  0.66845091     0.24900
C1627       C  0.53451772  0.24845505  0.64972567    -0.23090
C1628       C  0.55701356  0.27531962  0.65275162     0.19810
F1629       F  0.54835871  0.30688520  0.64442239    -0.13050
F1630       F  0.61023800  0.29624556  0.66633759    -0.15410
F1631       F  0.52043309  0.19389498  0.67075924    -0.15410
F1632       F  0.58133153  0.18467091  0.69651835    -0.13050
C1633       C  0.76297120  0.31480624  0.57497708     0.24960
C1634       C  0.73989103  0.32760161  0.59785116    -0.23150
C1635       C  0.72198840  0.35590424  0.58945450     0.19870
C1636       C  0.72565799  0.37071014  0.55818258     0.24900
C1637       C  0.74682344  0.35678831  0.53293706    -0.23090
C1638       C  0.76721550  0.32982314  0.54332631     0.19810
F1639       F  0.79176001  0.31817086  0.52338264    -0.13050
F1640       F  0.78206591  0.28825997  0.58365132    -0.15410
F1641       F  0.70885898  0.39969174  0.55386279    -0.15410
F1642       F  0.70110518  0.36984492  0.61206872    -0.13050
C1643       C  0.91710269  0.28705821  0.84536261     0.24960
C1644       C  0.90723773  0.26249486  0.82368485    -0.23150
C1645       C  0.92788702  0.23484117  0.81886004     0.19870
C1646       C  0.95893719  0.23258858  0.83477988     0.24900
C1647       C  0.97015955  0.25795030  0.85629600    -0.23090
C1648       C  0.94687053  0.28429610  0.86261420     0.19810
F1649       F  0.95018090  0.30619712  0.88773726    -0.13050
F1650       F  0.89645539  0.31297925  0.85183936    -0.15410
F1651       F  0.97759006  0.20492983  0.82989993    -0.15410
F1652       F  0.91782633  0.20981610  0.79901245    -0.13050
C1653       C  0.76902436  0.13837903  0.90552445     0.24960
C1654       C  0.76872486  0.17269633  0.90095137    -0.23150
C1655       C  0.76174619  0.19331891  0.92820265     0.19870
C1656       C  0.75470766  0.17962736  0.95984153     0.24900
C1657       C  0.75529479  0.14481052  0.96481732    -0.23090
C1658       C  0.76285756  0.12460395  0.93678047     0.19810
F1659       F  0.76291572  0.09095444  0.93952441    -0.13050
F1660       F  0.77554448  0.11796963  0.87958350    -0.15410
F1661       F  0.74764598  0.20056275  0.98510505    -0.15410
F1662       F  0.76067818  0.22677714  0.92390940    -0.13050
C1663       C  0.62507698  0.99443975  0.81464260     0.24960
C1664       C  0.60563914  0.00171895  0.78574793    -0.23150
C1665       C  0.57121312  0.00765276  0.79071388     0.19870
C1666       C  0.55718428  0.00486098  0.82296089     0.24900
C1667       C  0.57723923  0.99702675  0.85064734    -0.23090
C1668       C  0.61109709  0.99220183  0.84614738     0.19810
F1669       F  0.63093020  0.98500126  0.87263030    -0.13050
F1670       F  0.65810483  0.98808841  0.81233154    -0.15410
F1671       F  0.52427571  0.01091141  0.82733439    -0.15410
F1672       F  0.55121984  0.01725514  0.76524316    -0.13050
C1673       C  0.57878632  0.98657839  0.70881035     0.24960
C1674       C  0.60604191  0.00687520  0.71762689    -0.23150
C1675       C  0.62013536  0.02678578  0.69115345     0.19870
C1676       C  0.60620691  0.02817094  0.65949494     0.24900
C1677       C  0.57944263  0.00822106  0.65171149    -0.23090
C1678       C  0.56577538  0.98733952  0.67635691     0.19810
F1679       F  0.54012158  0.96707280  0.66875873    -0.13050
F1680       F  0.56529557  0.96478026  0.73091355    -0.15410
F1681       F  0.62076703  0.04727761  0.63541790    -0.15410
F1682       F  0.64921771  0.04334946  0.69417402    -0.13050
C1683       C  0.69554103  0.06719286  0.76788343     0.24960
C1684       C  0.67697272  0.09696711  0.76656843    -0.23150
C1685       C  0.64272143  0.09521480  0.76168841     0.19870
C1686       C  0.62733494  0.06489628  0.75746780     0.24900
C1687       C  0.64551340  0.03445861  0.75724232    -0.23090
C1688       C  0.68011631  0.03623034  0.76328974     0.19810
F1689       F  0.69915217  0.00854433  0.76592574    -0.13050
F1690       F  0.72882632  0.06803869  0.77298802    -0.15410
F1691       F  0.59405322  0.06554529  0.75228670    -0.15410
F1692       F  0.62360683  0.12308732  0.76127789    -0.13050
C1693       C  0.87733811  0.56254359  0.76177376     0.24960
C1694       C  0.85759704  0.53455844  0.75323332    -0.23150
C1695       C  0.82344709  0.54063384  0.74670456     0.19870
C1696       C  0.81013372  0.57293934  0.74946185     0.24900
C1697       C  0.83049889  0.59973320  0.75808881    -0.23090
C1698       C  0.86400285  0.59419426  0.76406845     0.19810
F1699       F  0.88421034  0.61984666  0.77187312    -0.13050
F1700       F  0.91017129  0.55930934  0.76850841    -0.15410
F1701       F  0.77762960  0.57833513  0.74228091    -0.15410
F1702       F  0.80308965  0.51640363  0.73592506    -0.13050
C1703       C  0.72203599  0.83573930  0.54887086     0.24960
C1704       C  0.74892397  0.84420191  0.52709880    -0.23150
C1705       C  0.78106046  0.83535857  0.53947841     0.19870
C1706       C  0.78603959  0.82745053  0.57352921     0.24900
C1707       C  0.75891551  0.82600434  0.59566998    -0.23090
C1708       C  0.72702161  0.82781783  0.58225137     0.19810
F1709       F  0.69990985  0.82107912  0.60149269    -0.13050
F1710       F  0.69036731  0.83278496  0.53881360    -0.15410
F1711       F  0.81740578  0.82268202  0.58493619    -0.15410
F1712       F  0.80812258  0.83632375  0.51918761    -0.13050
C1713       C  0.57425049  0.73420506  0.81692185     0.24960
C1714       C  0.59744154  0.75831675  0.82608068    -0.23150
C1715       C  0.58858143  0.78153293  0.84981990     0.19870
C1716       C  0.55751077  0.78043160  0.86512157     0.24900
C1717       C  0.53225921  0.75761576  0.85494601    -0.23090
C1718       C  0.54215244  0.73385073  0.83096909     0.19810
F1719       F  0.52138899  0.70921333  0.82192325    -0.13050
F1720       F  0.58290799  0.71053538  0.79469182    -0.15410
F1721       F  0.55425184  0.80013927  0.89211907    -0.15410
F1722       F  0.61139420  0.80360259  0.86073284    -0.13050
C1723       C  0.63871098  0.90690327  0.75863280     0.24960
C1724       C  0.66735731  0.90141155  0.73975318    -0.23150
C1725       C  0.68191917  0.92865586  0.72289750     0.19870
C1726       C  0.66872867  0.96100924  0.72644189     0.24900
C1727       C  0.64168775  0.96724431  0.74837260    -0.23090
C1728       C  0.62598225  0.93849746  0.76264223     0.19810
F1729       F  0.59693417  0.93969981  0.77990878    -0.13050
F1730       F  0.62180940  0.88118183  0.77286834    -0.15410
F1731       F  0.68229106  0.98596089  0.70799972    -0.15410
F1732       F  0.70902435  0.92412516  0.70320945    -0.13050
C1733       C  0.73429663  0.68745695  0.92731944     0.24960
C1734       C  0.73669241  0.66700825  0.89913815    -0.23150
C1735       C  0.74078658  0.63303129  0.90366428     0.19870
C1736       C  0.74369280  0.61942741  0.93534175     0.24900
C1737       C  0.74331344  0.63935335  0.96453414    -0.23090
C1738       C  0.73750785  0.67384629  0.95987306     0.19810
F1739       F  0.73452152  0.69444602  0.98614187    -0.13050
F1740       F  0.73013785  0.72069736  0.92327954    -0.15410
F1741       F  0.74881859  0.58618664  0.93719488    -0.15410
F1742       F  0.74272281  0.61268278  0.87695344    -0.13050
C1743       C  0.90659311  0.73766649  0.63468602     0.24960
C1744       C  0.90222165  0.74141348  0.66873186    -0.23150
C1745       C  0.93009621  0.74175231  0.68944459     0.19870
C1746       C  0.96229532  0.74179958  0.67559954     0.24900
C1747       C  0.96721179  0.74303276  0.64027851    -0.23090
C1748       C  0.93828605  0.73576845  0.62119470     0.19810
F1749       F  0.94022864  0.72143653  0.59085311    -0.13050
F1750       F  0.87993811  0.73314395  0.61460228    -0.15410
F1751       F  0.98759797  0.73626701  0.69710062    -0.15410
F1752       F  0.92617736  0.74141765  0.72309611    -0.13050
loop_ 
_geom_bond_atom_site_label_1 
_geom_bond_atom_site_label_2 
_geom_bond_distance 
_geom_bond_site_symmetry_2 
_ccdc_geom_bond_type 
O1           Mg3   2.118       .  S
O1           Mg9   2.136       .  S
O1           C36   1.239       .  S
C2           O15   1.238       .  S
C2           O39   1.271       .  A
C2           H41   1.081       .  S
Mg3          O32   2.134       .  S
Mg3          O47   2.336       .  S
Mg3          O43   2.232       .  S
Mg3          O14   2.302       .  S
O4          Mg46   2.132       .  S
O4          Mg29   2.134       .  S
O4           C25   1.240       .  S
O5           C36   1.272       .  A
O5          Mg29   2.299       .  S
C6            O8   1.273       .  A
C6           O20   1.275       .  A
C6         C1707   1.486       .  S
O7           C35   1.273       .  A
O7           Mg9   2.303       .  S
O8          Mg40   2.251       .  S
Mg9          O15   2.119       .  S
Mg9          O23   2.240       .  S
Mg9          O11   2.333       .  S
C10          O48   1.269       .  A
C10          O16   1.275       .  A
C10        C1744   1.464       .  S
O11          C18   1.275       .  A
H12          C25   1.082       .  S
C13          O27   1.237       .  S
C13          O28   1.271       .  A
C13          H38   1.083       .  S
O14          C37   1.272       .  A
O15         Mg29   2.123       .  S
O16         Mg46   2.320       .  S
C17          O30   1.271       .  A
C17          O22   1.277       .  A
C17        C1697   1.470       .  S
C18          O45   1.273       .  A
C18        C1734   1.474       .  S
Mg19         O26   2.133       .  S
Mg19         O27   2.127       .  S
Mg19         O20   2.333       .  S
Mg19         O21   2.307       .  S
Mg19         O48   2.235       .  S
O21          C25   1.274       .  A
O22         Mg29   2.334       .  S
O23          C42   1.269       .  A
O24          C44   1.276       .  A
O24         Mg40   2.338       .  S
O26         Mg40   2.125       .  S
O26          C37   1.238       .  S
O27         Mg46   2.125       .  S
O28         Mg40   2.303       .  S
Mg29         O45   2.249       .  S
O30         Mg46   2.246       .  S
H31          C36   1.083       .  S
O32         Mg40   2.145       .  S
O32          C35   1.239       .  S
H33          C35   1.082       .  S
H34          C37   1.081       .  S
O39         Mg46   2.297       .  S
C42          O47   1.279       .  A
C42        C1714   1.474       .  S
O43          C44   1.273       .  A
C44        C1724   1.487       .  S
C49        C1664   1.563       .  S
C49        C1674   1.572       .  S
C49        C1687   1.564       .  S
C49        C1727   1.574   1_545  S
O50         Mg52   2.114       .  S
O50         Mg58   2.133       .  S
O50          C85   1.239       .  S
C51          O64   1.240       .  S
C51          O88   1.273       .  A
C51          H90   1.081       .  S
Mg52         O81   2.144       .  S
Mg52         O96   2.315       .  S
Mg52         O92   2.242       .  S
Mg52         O63   2.298       .  S
O53         Mg95   2.136       .  S
O53         Mg78   2.127       .  S
O53          C74   1.238       .  S
O54          C85   1.271       .  A
O54         Mg78   2.292       .  S
C55          O57   1.272       .  A
C55          O69   1.278       .  A
C55        C1684   1.484       .  S
O56          C84   1.272       .  A
O56         Mg58   2.301       .  S
O57         Mg89   2.267       .  S
Mg58         O64   2.125       .  S
Mg58         O72   2.267       .  S
Mg58         O60   2.319       .  S
C59          O97   1.274       .  A
C59          O65   1.281       .  A
C59        C1624   1.490       .  S
O60          C67   1.277       .  A
H61          C74   1.081       .  S
C62          O76   1.238       .  S
C62          O77   1.271       .  A
C62          H87   1.082       .  S
O63          C86   1.272       .  A
O64         Mg78   2.145       .  S
O65         Mg95   2.339       .  S
C66          O79   1.273       .  A
C66          O71   1.276       .  A
C66        C1634   1.469       .  S
C67          O94   1.273       .  A
C67        C1617   1.473       .  S
Mg68         O75   2.124       .  S
Mg68         O76   2.136       .  S
Mg68         O69   2.309       .  S
Mg68         O70   2.298       .  S
Mg68         O97   2.272       .  S
O70          C74   1.271       .  A
O71         Mg78   2.311       .  S
O72          C91   1.273       .  A
O73          C93   1.275       .  A
O73         Mg89   2.295       .  S
O75         Mg89   2.152       .  S
O75          C86   1.239       .  S
O76         Mg95   2.125       .  S
O77         Mg89   2.296       .  S
Mg78         O94   2.269       .  S
O79         Mg95   2.266       .  S
H80          C85   1.081       .  S
O81         Mg89   2.125       .  S
O81          C84   1.238       .  S
H82          C84   1.082       .  S
H83          C86   1.080       .  S
O88         Mg95   2.300       .  S
C91          O96   1.275       .  A
C91        C1644   1.470       .  S
O92          C93   1.269       .  A
C93        C1654   1.468       .  S
C98        C1594   1.566       .  S
C98        C1604   1.573       .  S
C98        C1614   1.575       .  S
C98        C1694   1.568       .  S
C99        C1564   1.594       .  S
C99        C1577   1.588       .  S
C99        C1584   1.552       .  S
C99        C1704   1.592       .  S
O100       Mg102   2.119       .  S
O100       Mg108   2.142       .  S
O100        C135   1.237       .  S
C101        O114   1.239       .  S
C101        O138   1.273       .  A
C101        H140   1.081       .  S
Mg102       O131   2.128       .  S
Mg102       O146   2.318       .  S
Mg102       O142   2.231       .  S
Mg102       O113   2.294       .  S
O103       Mg145   2.124       .  S
O103       Mg128   2.124       .  S
O103        C124   1.238       .  S
O104        C135   1.270       .  A
O104       Mg128   2.289       .  S
C105        O107   1.271       .  A
C105        O119   1.279       .  A
C105       C1554   1.476       .  S
O106        C134   1.271       .  A
O106       Mg108   2.298       .  S
O107       Mg139   2.246       .  S
Mg108       O114   2.127       .  S
Mg108       O122   2.237       .  S
Mg108       O110   2.351       .  S
C109        O147   1.274       .  A
C109        O115   1.275       .  A
C109       C1524   1.479       .  S
O110        C117   1.277       .  A
H111        C124   1.080       .  S
C112        O126   1.238       .  S
C112        O127   1.272       .  A
C112        H137   1.082       .  S
O113        C136   1.272       .  A
O114       Mg128   2.124       .  S
O115       Mg145   2.331       .  S
C116        O129   1.270       .  A
C116        O121   1.273       .  A
C116       C1587   1.463       .  S
C117        O144   1.271       .  A
C117       C1537   1.491       .  S
Mg118       O125   2.122       .  S
Mg118       O126   2.132       .  S
Mg118       O119   2.326       .  S
Mg118       O120   2.302       .  S
Mg118       O147   2.250       .  S
O120        C124   1.272       .  A
O121       Mg128   2.313       .  S
O122        C141   1.270       .  A
O123        C143   1.277       .  A
O123       Mg139   2.346       .  S
O125       Mg139   2.145       .  S
O125        C136   1.239       .  S
O126       Mg145   2.134       .  S
O127       Mg139   2.301       .  S
Mg128       O144   2.219       .  S
O129       Mg145   2.242       .  S
H130        C135   1.083       .  S
O131       Mg139   2.133       .  S
O131        C134   1.238       .  S
H132        C134   1.081       .  S
H133        C136   1.080       .  S
O138       Mg145   2.304       .  S
C141        O146   1.276       .  A
C141       C1544   1.463       .  S
O142        C143   1.272       .  A
C143       C1517   1.486       .  S
C148       C1494   1.566       .  S
C148       C1504   1.560       .  S
C148       C1514   1.578   1_556  S
C148       C1737   1.567       .  S
C149       C1464   1.557       .  S
C149       C1474   1.574       .  S
C149       C1487   1.562       .  S
C149       C1534   1.577       .  S
C150       C1424   1.569   1_545  S
C150       C1434   1.569       .  S
C150       C1447   1.565   1_545  S
C150       C1454   1.565       .  S
C151       C1394   1.598   1_556  S
C151       C1407   1.590       .  S
C151       C1414   1.587   1_556  S
C151       C1657   1.551       .  S
C152       C1354   1.573       .  S
C152       C1364   1.566       .  S
C152       C1374   1.575       .  S
C152       C1384   1.564       .  S
C153       C1324   1.570       .  S
C153       C1334   1.565       .  S
C153       C1344   1.579       .  S
C153       C1637   1.575       .  S
C154       C1297   1.566       .  S
C154       C1304   1.575       .  S
C154       C1314   1.565       .  S
C154       C1547   1.569       .  S
C155       C1254   1.562       .  S
C155       C1267   1.586       .  S
C155       C1274   1.594       .  S
C155       C1287   1.600       .  S
C156       C1224   1.566       .  S
C156       C1237   1.585   1_455  S
C156       C1247   1.563       .  S
C156       C1557   1.579   1_455  S
O157       Mg159   2.127       .  S
O157       Mg165   2.153       .  S
O157        C192   1.238       .  S
C158        O171   1.238       .  S
C158        O195   1.270       .  A
C158        H197   1.080       .  S
Mg159       O188   2.136       .  S
Mg159       O203   2.294       .  S
Mg159       O199   2.269       .  S
Mg159       O170   2.302       .  S
O160       Mg202   2.151       .  S
O160       Mg185   2.112       .  S
O160        C181   1.238       .  S
O161        C192   1.271       .  A
O161       Mg185   2.295       .  S
C162        O164   1.275       .  A
C162        O176   1.276       .  A
C162       C1214   1.476       .  S
O163        C191   1.273       .  A
O163       Mg165   2.305       .  S
O164       Mg196   2.276       .  S
Mg165       O171   2.102       .  S
Mg165       O179   2.242       .  S
Mg165       O167   2.300       .  S
C166        O204   1.274       .  A
C166        O172   1.274       .  A
C166       C1227   1.482       .  S
O167        C174   1.275       .  A
H168        C181   1.081       .  S
C169        O183   1.238       .  S
C169        O184   1.271       .  A
C169        H194   1.081       .  S
O170        C193   1.271       .  A
O171       Mg185   2.146       .  S
O172       Mg202   2.280       .  S
C173        O186   1.273       .  A
C173        O178   1.276       .  A
C173       C1197   1.475       .  S
C174        O201   1.273       .  A
C174       C1207   1.480       .  S
Mg175       O182   2.131       .  S
Mg175       O183   2.153       .  S
Mg175       O176   2.299       .  S
Mg175       O177   2.288       .  S
Mg175       O204   2.285       .  S
O177        C181   1.270       .  A
O178       Mg185   2.290       .  S
O179        C198   1.268       .  A
O180        C200   1.279       .  A
O180       Mg196   2.340       .  S
O182       Mg196   2.147       .  S
O182        C193   1.237       .  S
O183       Mg202   2.122       .  S
O184       Mg196   2.295       .  S
Mg185       O201   2.272       .  S
O186       Mg202   2.271       .  S
H187        C192   1.082       .  S
O188       Mg196   2.138       .  S
O188        C191   1.239       .  S
H189        C191   1.081       .  S
H190        C193   1.081       .  S
O195       Mg202   2.283       .  S
C198        O203   1.276       .  A
C198       C1467   1.472       .  S
O199        C200   1.272       .  A
C200       C1284   1.476       .  S
C205       C1164   1.574       .  S
C205       C1174   1.561   1_556  S
C205       C1184   1.576       .  S
C205       C1194   1.563   1_556  S
C206       C1137   1.569       .  S
C206       C1144   1.570       .  S
C206       C1154   1.570       .  S
C206       C1627   1.572       .  S
O207       Mg209   2.126       .  S
O207       Mg215   2.134       .  S
O207        C242   1.238       .  S
C208        O221   1.239       .  S
C208        O245   1.272       .  A
C208        H247   1.081       .  S
Mg209       O238   2.150       .  S
Mg209       O253   2.304       .  S
Mg209       O249   2.260       .  S
Mg209       O220   2.288       .  S
O210       Mg252   2.149       .  S
O210       Mg235   2.120       .  S
O210        C231   1.239       .  S
O211        C242   1.272       .  A
O211       Mg235   2.303       .  S
C212        O214   1.274       .  A
C212        O226   1.274       .  A
C212       C1104   1.480       .  S
O213        C241   1.273       .  A
O213       Mg215   2.303       .  S
O214       Mg246   2.285       .  S
Mg215       O221   2.130       .  S
Mg215       O229   2.278       .  S
Mg215       O217   2.323       .  S
C216        O254   1.270       .  A
C216        O222   1.276       .  A
C216       C1114   1.472       .  S
O217        C224   1.279       .  A
H218        C231   1.081       .  S
C219        O233   1.237       .  S
C219        O234   1.269       .  A
C219        H244   1.081       .  S
O220        C243   1.271       .  A
O221       Mg235   2.139       .  S
O222       Mg252   2.302       .  S
C223        O236   1.271       .  A
C223        O228   1.279       .  A
C223       C1367   1.477       .  S
C224        O251   1.274       .  A
C224       C1157   1.487       .  S
Mg225       O232   2.109       .  S
Mg225       O233   2.145       .  S
Mg225       O226   2.281       .  S
Mg225       O227   2.290       .  S
Mg225       O254   2.249       .  S
O227        C231   1.271       .  A
O228       Mg235   2.315       .  S
O229        C248   1.274       .  A
O230        C250   1.276       .  A
O230       Mg246   2.300       .  S
O232       Mg246   2.152       .  S
O232        C243   1.238       .  S
O233       Mg252   2.112       .  S
O234       Mg246   2.287       .  S
Mg235       O251   2.269       .  S
O236       Mg252   2.257       .  S
H237        C242   1.082       .  S
O238       Mg246   2.126       .  S
O238        C241   1.239       .  S
H239        C241   1.081       .  S
H240        C243   1.081       .  S
O245       Mg252   2.297       .  S
C248        O253   1.276       .  A
C248       C1124   1.495       .  S
O249        C250   1.272       .  A
C250       C1437   1.469       .  S
C255       C1084   1.563       .  S
C255       C1097   1.580   1_455  S
C255       C1107   1.566       .  S
C255       C1647   1.579   1_455  S
O256       Mg258   2.146       .  S
O256       Mg264   2.141       .  S
O256        C291   1.238       .  S
C257        O270   1.238       .  S
C257        O294   1.272       .  A
C257        H296   1.082       .  S
Mg258       O287   2.144       .  S
Mg258       O302   2.320       .  S
Mg258       O298   2.300       .  S
Mg258       O269   2.297       .  S
O259       Mg301   2.150       .  S
O259       Mg284   2.129       .  S
O259        C280   1.239       .  S
O260        C291   1.273       .  A
O260       Mg284   2.307       .  S
C261        O263   1.275       .  A
C261        O275   1.279       .  A
C261       C1327   1.484       .  S
O262        C290   1.273       .  A
O262       Mg264   2.303       .  S
O263       Mg295   2.281       .  S
Mg264       O270   2.133       .  S
Mg264       O278   2.278       .  S
Mg264       O266   2.354       .  S
C265        O303   1.273       .  A
C265        O271   1.275       .  A
C265       C1317   1.475       .  S
O266        C273   1.283       .  A
H267        C280   1.081       .  S
C268        O282   1.238       .  S
C268        O283   1.271       .  A
C268        H293   1.081       .  S
O269        C292   1.272       .  A
O270       Mg284   2.138       .  S
O271       Mg301   2.295       .  S
C272        O285   1.271       .  A
C272        O277   1.274       .  A
C272       C1074   1.478       .  S
C273        O300   1.270       .  A
C273       C1397   1.485       .  S
Mg274       O281   2.121       .  S
Mg274       O282   2.151       .  S
Mg274       O275   2.315       .  S
Mg274       O276   2.296       .  S
Mg274       O303   2.276       .  S
O276        C280   1.272       .  A
O277       Mg284   2.289       .  S
O278        C297   1.275       .  A
O279        C299   1.277       .  A
O279       Mg295   2.301       .  S
O281       Mg295   2.149       .  S
O281        C292   1.239       .  S
O282       Mg301   2.114       .  S
O283       Mg295   2.289       .  S
Mg284       O300   2.262       .  S
O285       Mg301   2.259       .  S
H286        C291   1.080       .  S
O287       Mg295   2.127       .  S
O287        C290   1.239       .  S
H288        C290   1.081       .  S
H289        C292   1.081       .  S
O294       Mg301   2.300       .  S
C297        O302   1.277       .  A
C297       C1057   1.473       .  S
O298        C299   1.275       .  A
C299       C1064   1.499       .  S
C304       C1034   1.551       .  S
C304       C1047   1.599   1_565  S
C304       C1054   1.595   1_565  S
C304       C1527   1.599       .  S
C305       C1007   1.564       .  S
C305       C1014   1.571   1_655  S
C305       C1027   1.565   1_655  S
C305       C1067   1.577       .  S
O306       Mg308   2.119       .  S
O306       Mg314   2.125       .  S
O306        C341   1.238       .  S
C307        O320   1.238       .  S
C307        O344   1.271       .  A
C307        H346   1.082       .  S
Mg308       O337   2.129       .  S
Mg308       O352   2.325       .  S
Mg308       O348   2.224       .  S
Mg308       O319   2.305       .  S
O309       Mg351   2.140       .  S
O309       Mg334   2.128       .  S
O309        C330   1.238       .  S
O310        C341   1.271       .  A
O310       Mg334   2.300       .  S
C311        O313   1.273       .  A
C311        O325   1.274       .  A
C311       C1024   1.475       .  S
O312        C340   1.272       .  A
O312       Mg314   2.304       .  S
O313       Mg345   2.254       .  S
Mg314       O320   2.132       .  S
Mg314       O328   2.256       .  S
Mg314       O316   2.305       .  S
C315        O353   1.269       .  A
C315        O321   1.275       .  A
C315        C954   1.463       .  S
O316        C323   1.274       .  A
H317        C330   1.081       .  S
C318        O332   1.238       .  S
C318        O333   1.272       .  A
C318        H343   1.082       .  S
O319        C342   1.272       .  A
O320       Mg334   2.141       .  S
O321       Mg351   2.319       .  S
C322        O335   1.272       .  A
C322        O327   1.275       .  A
C322        C994   1.477       .  S
C323        O350   1.271       .  A
C323        C977   1.465       .  S
Mg324       O331   2.126       .  S
Mg324       O332   2.128       .  S
Mg324       O325   2.325       .  S
Mg324       O326   2.301       .  S
Mg324       O353   2.231       .  S
O326        C330   1.272       .  A
O327       Mg334   2.311       .  S
O328        C347   1.271       .  A
O329        C349   1.274       .  A
O329       Mg345   2.319       .  S
O331       Mg345   2.123       .  S
O331        C342   1.238       .  S
O332       Mg351   2.129       .  S
O333       Mg345   2.301       .  S
Mg334       O350   2.246       .  S
O335       Mg351   2.251       .  S
H336        C341   1.082       .  S
O337       Mg345   2.136       .  S
O337        C340   1.238       .  S
H338        C340   1.081       .  S
H339        C342   1.083       .  S
O344       Mg351   2.298       .  S
C347        O352   1.275       .  A
C347        C984   1.472       .  S
O348        C349   1.269       .  A
C349        C964   1.463       .  S
C354        C934   1.596       .  S
C354        C944   1.582       .  S
C354        C997   1.595   1_556  S
C354       C1117   1.550       .  S
C355        C917   1.583       .  S
C355        C924   1.584   1_545  S
C355        C987   1.591       .  S
C355       C1204   1.587   1_545  S
O356       Mg358   2.137       .  S
O356       Mg364   2.122   1_655  S
O356        C391   1.238       .  S
C357        O370   1.237       .  S
C357        O394   1.271   1_565  A
C357        H396   1.081       .  S
Mg358       O387   2.144       .  S
Mg358       O402   2.361       .  S
Mg358       O398   2.267       .  S
Mg358       O369   2.301       .  S
O359       Mg401   2.135       .  S
O359       Mg384   2.127       .  S
O359        C380   1.240       .  S
O360        C391   1.272   1_445  A
O360       Mg384   2.305       .  S
C361        O363   1.277   1_545  A
C361        O375   1.277       .  A
C361       C1044   1.492       .  S
O362        C390   1.272   1_455  A
O362       Mg364   2.301       .  S
O363       Mg395   2.280       .  S
Mg364       O370   2.127       .  S
Mg364       O378   2.212       .  S
Mg364       O366   2.311       .  S
C365        O403   1.270   1_455  A
C365        O371   1.277       .  A
C365       C1017   1.466       .  S
O366        C373   1.272       .  A
H367        C380   1.083       .  S
C368        O382   1.239       .  S
C368        O383   1.272   1_445  A
C368        H393   1.080       .  S
O369        C392   1.273   1_565  A
O370       Mg384   2.127   1_565  S
O371       Mg401   2.317       .  S
C372        O385   1.275       .  A
C372        O377   1.275       .  A
C372        C907   1.487       .  S
C373        O400   1.270   1_565  A
C373       C1444   1.474       .  S
Mg374       O381   2.128       .  S
Mg374       O382   2.145   1_655  S
Mg374       O375   2.331       .  S
Mg374       O376   2.299       .  S
Mg374       O403   2.238       .  S
O376        C380   1.273   1_655  A
O377       Mg384   2.332       .  S
O378        C397   1.267   1_455  A
O379        C399   1.280       .  A
O379       Mg395   2.319       .  S
O381       Mg395   2.129   1_545  S
O381        C392   1.239       .  S
O382       Mg401   2.125       .  S
O383       Mg395   2.298       .  S
Mg384       O400   2.228       .  S
O385       Mg401   2.255       .  S
H386        C391   1.081       .  S
O387       Mg395   2.127       .  S
O387        C390   1.238       .  S
H388        C390   1.082       .  S
H389        C392   1.081       .  S
O394       Mg401   2.299       .  S
C397        O402   1.281       .  A
C397        C894   1.494       .  S
O398        C399   1.274       .  A
C399       C1567   1.479       .  S
O404       Mg406   2.115   1_554  S
O404       Mg412   2.152   1_545  S
O404        C439   1.238       .  S
C405        O418   1.238       .  S
C405        O442   1.270   1_554  A
C405        H444   1.084       .  S
Mg406       O435   2.152       .  S
Mg406       O450   2.271   1_556  S
Mg406       O446   2.285       .  S
Mg406       O417   2.297   1_655  S
O407       Mg449   2.148   1_554  S
O407       Mg432   2.111       .  S
O407        C428   1.237       .  S
O408        C439   1.270   1_455  A
O408       Mg432   2.291   1_545  S
C409        O411   1.274       .  A
C409        O423   1.274       .  A
C409       C1457   1.484       .  S
O410        C438   1.272   1_565  A
O410       Mg412   2.298   1_556  S
O411       Mg443   2.286   1_455  S
Mg412       O418   2.121       .  S
Mg412       O426   2.286   1_565  S
Mg412       O414   2.296       .  S
C413        O451   1.275       .  A
C413        O419   1.275       .  A
C413       C1187   1.497       .  S
O414        C421   1.277       .  A
H415        C428   1.081       .  S
C416        O430   1.238       .  S
C416        O431   1.271   1_455  A
C416        H441   1.082       .  S
O417        C440   1.271       .  A
O418       Mg432   2.154   1_655  S
O419       Mg449   2.282       .  S
C420        O433   1.273       .  A
C420        O425   1.276       .  A
C420       C1244   1.478       .  S
C421        O448   1.271       .  A
C421       C1037   1.472       .  S
Mg422       O429   2.130       .  S
Mg422       O430   2.155   1_545  S
Mg422       O423   2.269       .  S
Mg422       O424   2.287   1_556  S
Mg422       O451   2.306   1_545  S
O424        C428   1.269   1_545  A
O425       Mg432   2.297       .  S
O426        C445   1.273       .  A
O427        C447   1.277       .  A
O427       Mg443   2.292       .  S
O429       Mg443   2.159   1_455  S
O429        C440   1.238       .  S
O430       Mg449   2.112       .  S
O431       Mg443   2.293   1_565  S
Mg432       O448   2.257   1_455  S
O433       Mg449   2.270   1_554  S
H434        C439   1.082       .  S
O435       Mg443   2.122       .  S
O435        C438   1.238       .  S
H436        C438   1.082       .  S
H437        C440   1.081       .  S
O442       Mg449   2.290   1_655  S
C445        O450   1.274       .  A
C445       C1417   1.485       .  S
O446        C447   1.272       .  A
C447       C1094   1.491       .  S
O452       Mg454   2.116       .  S
O452       Mg460   2.135   1_545  S
O452        C487   1.238       .  S
C453        O466   1.238       .  S
C453        O490   1.272       .  A
C453        H492   1.081       .  S
Mg454       O483   2.129       .  S
Mg454       O498   2.316       .  S
Mg454       O494   2.238       .  S
Mg454       O465   2.305       .  S
O455       Mg497   2.128       .  S
O455       Mg480   2.123       .  S
O455        C476   1.239       .  S
O456        C487   1.271   1_565  A
O456       Mg480   2.294       .  S
C457        O459   1.273       .  A
C457        O471   1.275       .  A
C457        C884   1.470       .  S
O458        C486   1.273   1_565  A
O458       Mg460   2.300       .  S
O459       Mg491   2.256       .  S
Mg460       O466   2.123       .  S
Mg460       O474   2.244       .  S
Mg460       O462   2.340       .  S
C461        O499   1.271   1_565  A
C461        O467   1.274       .  A
C461        C927   1.470       .  S
O462        C469   1.277       .  A
H463        C476   1.079       .  S
C464        O478   1.239       .  S
C464        O479   1.274   1_565  A
C464        H489   1.083       .  S
O465        C488   1.273       .  A
O466       Mg480   2.123       .  S
O467       Mg497   2.319       .  S
C468        O481   1.269       .  A
C468        O473   1.275       .  A
C468       C1484   1.465       .  S
C469        O496   1.271       .  A
C469       C1574   1.477       .  S
Mg470       O477   2.132       .  S
Mg470       O478   2.123   1_545  S
Mg470       O471   2.319       .  S
Mg470       O472   2.305       .  S
Mg470       O499   2.256       .  S
O472        C476   1.273   1_545  A
O473       Mg480   2.325       .  S
O474        C493   1.270   1_565  A
O475        C495   1.279       .  A
O475       Mg491   2.349       .  S
O477       Mg491   2.129       .  S
O477        C488   1.239       .  S
O478       Mg497   2.127       .  S
O479       Mg491   2.310       .  S
Mg480       O496   2.227       .  S
O481       Mg497   2.234       .  S
H482        C487   1.082       .  S
O483       Mg491   2.132       .  S
O483        C486   1.239       .  S
H484        C486   1.081       .  S
H485        C488   1.081       .  S
O490       Mg497   2.298       .  S
C493        O498   1.276       .  A
C493       C1677   1.467       .  S
O494        C495   1.271       .  A
C495       C1147   1.493       .  S
C500        C887   1.594       .  S
C500        C904   1.586       .  S
C500        C967   1.559       .  S
C500       C1127   1.599       .  S
O501       Mg503   2.134       .  S
O501       Mg509   2.123   1_554  S
O501        C536   1.239       .  S
C502        O515   1.239   1_545  S
C502        O539   1.273       .  A
C502        H541   1.083       .  S
Mg503       O532   2.133   1_565  S
Mg503       O547   2.319       .  S
Mg503       O543   2.236       .  S
Mg503       O514   2.294       .  S
O504       Mg546   2.135   1_565  S
O504       Mg529   2.137       .  S
O504        C525   1.239       .  S
O505        C536   1.273   1_556  A
O505       Mg529   2.308       .  S
C506        O508   1.272       .  A
C506        O520   1.275       .  A
C506        C874   1.472       .  S
O507        C535   1.273   1_556  A
O507       Mg509   2.306   1_545  S
O508       Mg540   2.251       .  S
Mg509       O515   2.133       .  S
Mg509       O523   2.240       .  S
Mg509       O511   2.336       .  S
C510        O548   1.269   1_556  A
C510        O516   1.280       .  A
C510       C1404   1.479       .  S
O511        C518   1.275       .  A
H512        C525   1.082       .  S
C513        O527   1.238       .  S
C513        O528   1.271   1_556  A
C513        H538   1.080       .  S
O514        C537   1.271   1_565  A
O515       Mg529   2.122       .  S
O516       Mg546   2.338       .  S
C517        O530   1.271   1_565  A
C517        O522   1.277       .  A
C517       C1667   1.467       .  S
C518        O545   1.273       .  A
C518        C864   1.478       .  S
Mg519       O526   2.115       .  S
Mg519       O527   2.136   1_554  S
Mg519       O520   2.322       .  S
Mg519       O521   2.300   1_545  S
Mg519       O548   2.238       .  S
O521        C525   1.273   1_554  A
O522       Mg529   2.333       .  S
O523        C542   1.271   1_556  A
O524        C544   1.273       .  A
O524       Mg540   2.311       .  S
O526       Mg540   2.127       .  S
O526        C537   1.238       .  S
O527       Mg546   2.111       .  S
O528       Mg540   2.294       .  S
Mg529       O545   2.259       .  S
O530       Mg546   2.240       .  S
H531        C536   1.081       .  S
O532       Mg540   2.135       .  S
O532        C535   1.238       .  S
H533        C535   1.083       .  S
H534        C537   1.082       .  S
O539       Mg546   2.310       .  S
C542        O547   1.273       .  A
C542       C1177   1.467       .  S
O543        C544   1.270   1_565  A
C544        C914   1.463       .  S
C549        C857   1.591       .  S
C549        C877   1.586       .  S
C549        C974   1.585       .  S
C549       C1077   1.584       .  S
O550       Mg552   2.110       .  S
O550       Mg558   2.144       .  S
O550        C585   1.238       .  S
C551        O564   1.238       .  S
C551        O588   1.271       .  A
C551        H590   1.081       .  S
Mg552       O581   2.156       .  S
Mg552       O596   2.317       .  S
Mg552       O592   2.260       .  S
Mg552       O563   2.295   1_554  S
O553       Mg595   2.144       .  S
O553       Mg578   2.132       .  S
O553        C574   1.238       .  S
O554        C585   1.270   1_556  A
O554       Mg578   2.289       .  S
C555        O557   1.274       .  A
C555        O569   1.278       .  A
C555        C847   1.499       .  S
O556        C584   1.271       .  A
O556       Mg558   2.297       .  S
O557       Mg589   2.297   1_556  S
Mg558       O564   2.118       .  S
Mg558       O572   2.270       .  S
Mg558       O560   2.294       .  S
C559        O597   1.275       .  A
C559        O565   1.278       .  A
C559       C1377   1.498       .  S
O560        C567   1.276       .  A
H561        C574   1.082       .  S
C562        O576   1.238       .  S
C562        O577   1.271   1_556  A
C562        H587   1.081       .  S
O563        C586   1.271       .  A
O564       Mg578   2.150   1_554  S
O565       Mg595   2.302       .  S
C566        O579   1.272       .  A
C566        O571   1.275       .  A
C566        C947   1.467       .  S
C567        O594   1.274       .  A
C567        C854   1.482       .  S
Mg568       O575   2.117       .  S
Mg568       O576   2.149       .  S
Mg568       O569   2.300       .  S
Mg568       O570   2.300       .  S
Mg568       O597   2.293       .  S
O570        C574   1.272       .  A
O571       Mg578   2.304       .  S
O572        C591   1.272       .  A
O573        C593   1.274       .  A
O573       Mg589   2.274       .  S
O575       Mg589   2.154   1_556  S
O575        C586   1.239       .  S
O576       Mg595   2.118       .  S
O577       Mg589   2.292       .  S
Mg578       O594   2.276   1_556  S
O579       Mg595   2.267       .  S
H580        C585   1.081       .  S
O581       Mg589   2.135       .  S
O581        C584   1.238       .  S
H582        C584   1.082       .  S
H583        C586   1.081       .  S
O588       Mg595   2.294   1_554  S
C591        O596   1.279       .  A
C591       C1294   1.488       .  S
O592        C593   1.272       .  A
C593       C1507   1.467       .  S
O598       Mg600   2.131       .  S
O598       Mg606   2.152   1_655  S
O598        C633   1.238       .  S
C599        O612   1.237       .  S
C599        O636   1.270       .  A
C599        H638   1.081       .  S
Mg600       O629   2.151       .  S
Mg600       O644   2.304       .  S
Mg600       O640   2.301       .  S
Mg600       O611   2.296       .  S
O601       Mg643   2.152       .  S
O601       Mg626   2.109       .  S
O601        C622   1.237       .  S
O602        C633   1.272       .  A
O602       Mg626   2.299   1_655  S
C603        O605   1.274       .  A
C603        O617   1.276       .  A
C603       C1004   1.477       .  S
O604        C632   1.271   1_455  A
O604       Mg606   2.291       .  S
O605       Mg637   2.280       .  S
Mg606       O612   2.126       .  S
Mg606       O620   2.273   1_455  S
Mg606       O608   2.279       .  S
C607        O645   1.273       .  A
C607        O613   1.274       .  A
C607        C837   1.471       .  S
O608        C615   1.275       .  A
H609        C622   1.081       .  S
C610        O624   1.239       .  S
C610        O625   1.272       .  A
C610        H635   1.081       .  S
O611        C634   1.271       .  A
O612       Mg626   2.155       .  S
O613       Mg643   2.279       .  S
C614        O627   1.274       .  A
C614        O619   1.279       .  A
C614       C1277   1.489       .  S
C615        O642   1.272       .  A
C615        C827   1.477       .  S
Mg616       O623   2.125       .  S
Mg616       O624   2.158   1_655  S
Mg616       O617   2.293       .  S
Mg616       O618   2.288   1_655  S
Mg616       O645   2.270   1_655  S
O618        C622   1.270       .  A
O619       Mg626   2.312       .  S
O620        C639   1.272       .  A
O621        C641   1.279       .  A
O621       Mg637   2.314       .  S
O623       Mg637   2.148       .  S
O623        C634   1.237       .  S
O624       Mg643   2.134       .  S
O625       Mg637   2.298   1_455  S
Mg626       O642   2.267       .  S
O627       Mg643   2.283       .  S
H628        C633   1.081       .  S
O629       Mg637   2.116       .  S
O629        C632   1.238       .  S
H630        C632   1.081       .  S
H631        C634   1.081       .  S
O636       Mg643   2.290       .  S
C639        O644   1.278       .  A
C639       C1597   1.484       .  S
O640        C641   1.276       .  A
C641       C1347   1.502       .  S
O646       Mg648   2.112       .  S
O646       Mg654   2.148   1_554  S
O646        C681   1.239       .  S
C647        O660   1.238       .  S
C647        O684   1.271       .  A
C647        H686   1.081       .  S
Mg648       O677   2.151   1_655  S
Mg648       O692   2.298       .  S
Mg648       O688   2.257   1_655  S
Mg648       O659   2.295   1_655  S
O649       Mg691   2.146   1_655  S
O649       Mg674   2.113       .  S
O649        C670   1.237       .  S
O650        C681   1.271       .  A
O650       Mg674   2.294   1_554  S
C651        O653   1.274       .  A
C651        O665   1.275       .  A
C651        C937   1.487       .  S
O652        C680   1.271   1_556  A
O652       Mg654   2.298   1_455  S
O653       Mg685   2.290       .  S
Mg654       O660   2.135       .  S
Mg654       O668   2.299   1_556  S
Mg654       O656   2.285       .  S
C655        O693   1.273       .  A
C655        O661   1.275       .  A
C655       C1087   1.478       .  S
O656        C663   1.274       .  A
H657        C670   1.081       .  S
C658        O672   1.238       .  S
C658        O673   1.271       .  A
C658        H683   1.081       .  S
O659        C682   1.271       .  A
O660       Mg674   2.152       .  S
O661       Mg691   2.290       .  S
C662        O675   1.273       .  A
C662        O667   1.279       .  A
C662       C1607   1.496       .  S
C663        O690   1.272       .  A
C663       C1497   1.461       .  S
Mg664       O671   2.124       .  S
Mg664       O672   2.155   1_554  S
Mg664       O665   2.283       .  S
Mg664       O666   2.287   1_455  S
Mg664       O693   2.281   1_554  S
O666        C670   1.270   1_554  A
O667       Mg674   2.315       .  S
O668        C687   1.273       .  A
O669        C689   1.276       .  A
O669       Mg685   2.301       .  S
O671       Mg685   2.158       .  S
O671        C682   1.238       .  S
O672       Mg691   2.123       .  S
O673       Mg685   2.293   1_556  S
Mg674       O690   2.259       .  S
O675       Mg691   2.277   1_655  S
H676        C681   1.081       .  S
O677       Mg685   2.134       .  S
O677        C680   1.238       .  S
H678        C680   1.081       .  S
H679        C682   1.081       .  S
O684       Mg691   2.297   1_655  S
C687        O692   1.277       .  A
C687       C1234   1.496       .  S
O688        C689   1.272       .  A
C689        C814   1.472       .  S
C694        C817   1.584       .  S
C694        C834   1.584       .  S
C694        C957   1.586       .  S
C694       C1217   1.583       .  S
O695       Mg697   2.132       .  S
O695       Mg703   2.125       .  S
O695        C730   1.239       .  S
C696        O709   1.239       .  S
C696        O733   1.272       .  A
C696        H735   1.082       .  S
Mg697       O726   2.125       .  S
Mg697       O741   2.325       .  S
Mg697       O737   2.233       .  S
Mg697       O708   2.303       .  S
O698       Mg740   2.143       .  S
O698       Mg723   2.121       .  S
O698        C719   1.238       .  S
O699        C730   1.272       .  A
O699       Mg723   2.301       .  S
C700        O702   1.274       .  A
C700        O714   1.274       .  A
C700       C1337   1.474       .  S
O701        C729   1.274       .  A
O701       Mg703   2.310       .  S
O702       Mg734   2.257       .  S
Mg703       O709   2.121       .  S
Mg703       O717   2.245       .  S
Mg703       O705   2.327       .  S
C704        O742   1.270       .  A
C704        O710   1.278       .  A
C704       C1307   1.483       .  S
O705        C712   1.278       .  A
H706        C719   1.081       .  S
C707        O721   1.239       .  S
C707        O722   1.273       .  A
C707        H732   1.082       .  S
O708        C731   1.272       .  A
O709       Mg723   2.142       .  S
O710       Mg740   2.354       .  S
C711        O724   1.270       .  A
C711        O716   1.280       .  A
C711       C1477   1.468       .  S
C712        O739   1.275       .  A
C712       C1264   1.485       .  S
Mg713       O720   2.125       .  S
Mg713       O721   2.121       .  S
Mg713       O714   2.320       .  S
Mg713       O715   2.291       .  S
Mg713       O742   2.217       .  S
O715        C719   1.271       .  A
O716       Mg723   2.327       .  S
O717        C736   1.272       .  A
O718        C738   1.279       .  A
O718       Mg734   2.348       .  S
O720       Mg734   2.124       .  S
O720        C731   1.238       .  S
O721       Mg740   2.129       .  S
O722       Mg734   2.305       .  S
Mg723       O739   2.273       .  S
O724       Mg740   2.235       .  S
H725        C730   1.081       .  S
O726       Mg734   2.136       .  S
O726        C729   1.240       .  S
H727        C729   1.082       .  S
H728        C731   1.083       .  S
O733       Mg740   2.295       .  S
C736        O741   1.274       .  A
C736       C1387   1.472       .  S
O737        C738   1.270       .  A
C738       C1134   1.491       .  S
C743        C807   1.586       .  S
C743        C824   1.548       .  S
C743        C897   1.599       .  S
C743       C1747   1.586   1_455  S
O744       Mg746   2.119       .  S
O744       Mg752   2.151       .  S
O744        C779   1.238       .  S
C745        O758   1.239       .  S
C745        O782   1.272       .  A
C745        H784   1.081       .  S
Mg746       O775   2.144       .  S
Mg746       O790   2.293       .  S
Mg746       O786   2.267       .  S
Mg746       O757   2.293       .  S
O747       Mg789   2.138       .  S
O747       Mg772   2.120       .  S
O747        C768   1.239       .  S
O748        C779   1.271       .  A
O748       Mg772   2.292       .  S
C749        O751   1.273       .  A
C749        O763   1.277       .  A
C749       C1357   1.469       .  S
O750        C778   1.272       .  A
O750       Mg752   2.299       .  S
O751       Mg783   2.263       .  S
Mg752       O758   2.118       .  S
Mg752       O766   2.269       .  S
Mg752       O754   2.304       .  S
C753        O791   1.273       .  A
C753        O759   1.277       .  A
C753        C794   1.477       .  S
O754        C761   1.275       .  A
H755        C768   1.081       .  S
C756        O770   1.238       .  S
C756        O771   1.270       .  A
C756        H781   1.081       .  S
O757        C780   1.271       .  A
O758       Mg772   2.144       .  S
O759       Mg789   2.301       .  S
C760        O773   1.273       .  A
C760        O765   1.275       .  A
C760       C1167   1.469       .  S
C761        O788   1.271       .  A
C761       C1427   1.467       .  S
Mg762       O769   2.121       .  S
Mg762       O770   2.147       .  S
Mg762       O763   2.318       .  S
Mg762       O764   2.295       .  S
Mg762       O791   2.266       .  S
O764        C768   1.272       .  A
O765       Mg772   2.310       .  S
O766        C785   1.271       .  A
O767        C787   1.277       .  A
O767       Mg783   2.320       .  S
O769       Mg783   2.145       .  S
O769        C780   1.239       .  S
O770       Mg789   2.120       .  S
O771       Mg783   2.292       .  S
Mg772       O788   2.252       .  S
O773       Mg789   2.269       .  S
H774        C779   1.081       .  S
O775       Mg783   2.125       .  S
O775        C778   1.238       .  S
H776        C778   1.081       .  S
H777        C780   1.080       .  S
O782       Mg789   2.295       .  S
C785        O790   1.276       .  A
C785        C804   1.491       .  S
O786        C787   1.272       .  A
C787       C1257   1.472       .  S
C792        C797   1.562       .  S
C792        C844   1.580       .  S
C792        C867   1.565       .  S
C792       C1717   1.577       .  S
C793        C794   1.410       .  A
C793        C798   1.410       .  A
C793        F800   1.357       .  S
C794        C795   1.394       .  A
C795        C796   1.385       .  A
C795        F802   1.359       .  S
C796        C797   1.427       .  A
C796        F801   1.357       .  S
C797        C798   1.417       .  A
C798        F799   1.355       .  S
C803        C804   1.409       .  A
C803        C808   1.408       .  A
C803        F810   1.357       .  S
C804        C805   1.399       .  A
C805        C806   1.386       .  A
C805        F812   1.360       .  S
C806        C807   1.437       .  A
C806        F811   1.355       .  S
C807        C808   1.427       .  A
C808        F809   1.358       .  S
C813        C814   1.399       .  A
C813        C818   1.402       .  A
C813        F820   1.359       .  S
C814        C815   1.391       .  A
C815        C816   1.393       .  A
C815        F822   1.359       .  S
C816        C817   1.427       .  A
C816        F821   1.349       .  S
C817        C818   1.429       .  A
C818        F819   1.350       .  S
C823        C824   1.417       .  A
C823        C828   1.408       .  A
C823        F830   1.355       .  S
C824        C825   1.422       .  A
C825        C826   1.382       .  A
C825        F832   1.358   1_455  S
C826        C827   1.398       .  A
C826        F831   1.359       .  S
C827        C828   1.410       .  A
C828        F829   1.357       .  S
C833        C834   1.428       .  A
C833        C838   1.404       .  A
C833        F840   1.351       .  S
C834        C835   1.425       .  A
C835        C836   1.390       .  A
C835        F842   1.348       .  S
C836        C837   1.391       .  A
C836        F841   1.359       .  S
C837        C838   1.400       .  A
C838        F839   1.358       .  S
C843        C844   1.420       .  A
C843        C848   1.416       .  A
C843        F850   1.356       .  S
C844        C845   1.435       .  A
C845        C846   1.385       .  A
C845        F852   1.357       .  S
C846        C847   1.399       .  A
C846        F851   1.360       .  S
C847        C848   1.414       .  A
C848        F849   1.357       .  S
C853        C854   1.391       .  A
C853        C858   1.388       .  A
C853        F860   1.359       .  S
C854        C855   1.403       .  A
C855        C856   1.409       .  A
C855        F862   1.358       .  S
C856        C857   1.433       .  A
C856        F861   1.349       .  S
C857        C858   1.427       .  A
C858        F859   1.346       .  S
C863        C864   1.392       .  A
C863        C868   1.387       .  A
C863        F870   1.359       .  S
C864        C865   1.409       .  A
C865        C866   1.413       .  A
C865        F872   1.357       .  S
C866        C867   1.418       .  A
C866        F871   1.355       .  S
C867        C868   1.428       .  A
C868        F869   1.357       .  S
C873        C874   1.387       .  A
C873        C878   1.389       .  A
C873        F880   1.359       .  S
C874        C875   1.401       .  A
C875        C876   1.409       .  A
C875        F882   1.358       .  S
C876        C877   1.431       .  A
C876        F881   1.351       .  S
C877        C878   1.426       .  A
C878        F879   1.347       .  S
C883        C884   1.404       .  A
C883        C888   1.413       .  A
C883        F890   1.358       .  S
C884        C885   1.383       .  A
C885        C886   1.385       .  A
C885        F892   1.360       .  S
C886        C887   1.434       .  A
C886        F891   1.354       .  S
C887        C888   1.428       .  A
C888        F889   1.352       .  S
C893        C894   1.402       .  A
C893        C898   1.408       .  A
C893        F900   1.358       .  S
C894        C895   1.407   1_655  A
C895        C896   1.391       .  A
C895        F902   1.359       .  S
C896        C897   1.426       .  A
C896        F901   1.356       .  S
C897        C898   1.429   1_455  A
C898        F899   1.346       .  S
C903        C904   1.425       .  A
C903        C908   1.417       .  A
C903        F910   1.357       .  S
C904        C905   1.433       .  A
C905        C906   1.383       .  A
C905        F912   1.354       .  S
C906        C907   1.392       .  A
C906        F911   1.360       .  S
C907        C908   1.411       .  A
C908        F909   1.357       .  S
C913        C914   1.385       .  A
C913        C918   1.387       .  A
C913        F920   1.359       .  S
C914        C915   1.398   1_545  A
C915        C916   1.406       .  A
C915        F922   1.358       .  S
C916        C917   1.431   1_565  A
C916        F921   1.349       .  S
C917        C918   1.428       .  A
C918        F919   1.349       .  S
C923        C924   1.431   1_545  A
C923        C928   1.407   1_545  A
C923        F930   1.349       .  S
C924        C925   1.427       .  A
C925        C926   1.392       .  A
C925        F932   1.349       .  S
C926        C927   1.387       .  A
C926        F931   1.359       .  S
C927        C928   1.399       .  A
C928        F929   1.359   1_565  S
C933        C934   1.431       .  A
C933        C938   1.385   1_556  A
C933        F940   1.357       .  S
C934        C935   1.428   1_556  A
C935        C936   1.412       .  A
C935        F942   1.352   1_554  S
C936        C937   1.406       .  A
C936        F941   1.358       .  S
C937        C938   1.395       .  A
C938        F939   1.359       .  S
C943        C944   1.424   1_554  A
C943        C948   1.406       .  A
C943        F950   1.359       .  S
C944        C945   1.439       .  A
C945        C946   1.390       .  A
C945        F952   1.357       .  S
C946        C947   1.387       .  A
C946        F951   1.359       .  S
C947        C948   1.401   1_556  A
C948        F949   1.358       .  S
C953        C954   1.396       .  A
C953        C958   1.405       .  A
C953        F960   1.359       .  S
C954        C955   1.386       .  A
C955        C956   1.389       .  A
C955        F962   1.359       .  S
C956        C957   1.428       .  A
C956        F961   1.347       .  S
C957        C958   1.432       .  A
C958        F959   1.350       .  S
C963        C964   1.391       .  A
C963        C968   1.382       .  A
C963        F970   1.359       .  S
C964        C965   1.405       .  A
C965        C966   1.406       .  A
C965        F972   1.357       .  S
C966        C967   1.420       .  A
C966        F971   1.355       .  S
C967        C968   1.424       .  A
C968        F969   1.357       .  S
C973        C974   1.432       .  A
C973        C978   1.405       .  A
C973        F980   1.351       .  S
C974        C975   1.426       .  A
C975        C976   1.388       .  A
C975        F982   1.348       .  S
C976        C977   1.387       .  A
C976        F981   1.359       .  S
C977        C978   1.398       .  A
C978        F979   1.358       .  S
C983        C984   1.388       .  A
C983        C988   1.392       .  A
C983        F990   1.359       .  S
C984        C985   1.398       .  A
C985        C986   1.407       .  A
C985        F992   1.358       .  S
C986        C987   1.431       .  A
C986        F991   1.347       .  S
C987        C988   1.430       .  A
C988        F989   1.349       .  S
C993        C994   1.396       .  A
C993        C998   1.396       .  A
C993       F1000   1.359       .  S
C994        C995   1.396       .  A
C995        C996   1.403       .  A
C995       F1002   1.358       .  S
C996        C997   1.436       .  A
C996       F1001   1.355       .  S
C997        C998   1.425       .  A
C998        F999   1.345       .  S
C1003      C1004   1.394       .  A
C1003      C1008   1.387       .  A
C1003      F1010   1.359       .  S
C1004      C1005   1.407       .  A
C1005      C1006   1.410       .  A
C1005      F1012   1.357       .  S
C1006      C1007   1.420       .  A
C1006      F1011   1.355   1_655  S
C1007      C1008   1.425       .  A
C1008      F1009   1.356       .  S
C1013      C1014   1.437       .  A
C1013      C1018   1.390       .  A
C1013      F1020   1.357       .  S
C1014      C1015   1.420   1_455  A
C1015      C1016   1.404       .  A
C1015      F1022   1.354       .  S
C1016      C1017   1.402   1_655  A
C1016      F1021   1.358       .  S
C1017      C1018   1.387       .  A
C1018      F1019   1.359       .  S
C1023      C1024   1.391       .  A
C1023      C1028   1.385       .  A
C1023      F1030   1.359       .  S
C1024      C1025   1.408       .  A
C1025      C1026   1.413       .  A
C1025      F1032   1.357       .  S
C1026      C1027   1.419       .  A
C1026      F1031   1.355       .  S
C1027      C1028   1.427       .  A
C1028      F1029   1.356       .  S
C1033      C1034   1.427       .  A
C1033      C1038   1.383       .  A
C1033      F1040   1.360       .  S
C1034      C1035   1.414       .  A
C1035      C1036   1.408       .  A
C1035      F1042   1.356   1_565  S
C1036      C1037   1.411       .  A
C1036      F1041   1.357       .  S
C1037      C1038   1.394       .  A
C1038      F1039   1.359       .  S
C1043      C1044   1.397   1_565  A
C1043      C1048   1.395       .  A
C1043      F1050   1.359       .  S
C1044      C1045   1.404       .  A
C1045      C1046   1.412       .  A
C1045      F1052   1.358       .  S
C1046      C1047   1.433       .  A
C1046      F1051   1.357       .  S
C1047      C1048   1.427   1_545  A
C1048      F1049   1.344       .  S
C1053      C1054   1.425       .  A
C1053      C1058   1.412       .  A
C1053      F1060   1.358       .  S
C1054      C1055   1.446       .  A
C1055      C1056   1.388       .  A
C1055      F1062   1.357       .  S
C1056      C1057   1.384       .  A
C1056      F1061   1.360       .  S
C1057      C1058   1.404       .  A
C1058      F1059   1.357       .  S
C1063      C1064   1.412       .  A
C1063      C1068   1.414       .  A
C1063      F1070   1.357       .  S
C1064      C1065   1.400       .  A
C1065      C1066   1.388       .  A
C1065      F1072   1.359       .  S
C1066      C1067   1.433       .  A
C1066      F1071   1.357       .  S
C1067      C1068   1.421       .  A
C1068      F1069   1.355       .  S
C1073      C1074   1.393       .  A
C1073      C1078   1.390       .  A
C1073      F1080   1.359       .  S
C1074      C1075   1.401       .  A
C1075      C1076   1.404       .  A
C1075      F1082   1.358       .  S
C1076      C1077   1.432       .  A
C1076      F1081   1.350       .  S
C1077      C1078   1.424       .  A
C1078      F1079   1.348       .  S
C1083      C1084   1.426       .  A
C1083      C1088   1.387       .  A
C1083      F1090   1.359       .  S
C1084      C1085   1.419       .  A
C1085      C1086   1.409       .  A
C1085      F1092   1.354       .  S
C1086      C1087   1.408       .  A
C1086      F1091   1.357       .  S
C1087      C1088   1.397       .  A
C1088      F1089   1.359       .  S
C1093      C1094   1.397   1_455  A
C1093      C1098   1.384       .  A
C1093      F1100   1.360       .  S
C1094      C1095   1.409       .  A
C1095      C1096   1.413       .  A
C1095      F1102   1.357       .  S
C1096      C1097   1.423       .  A
C1096      F1101   1.357       .  S
C1097      C1098   1.435   1_655  A
C1098      F1099   1.354       .  S
C1103      C1104   1.408       .  A
C1103      C1108   1.409       .  A
C1103      F1110   1.357       .  S
C1104      C1105   1.397       .  A
C1105      C1106   1.386       .  A
C1105      F1112   1.359       .  S
C1106      C1107   1.428       .  A
C1106      F1111   1.358       .  S
C1107      C1108   1.420       .  A
C1108      F1109   1.353       .  S
C1113      C1114   1.395       .  A
C1113      C1118   1.388       .  A
C1113      F1120   1.358       .  S
C1114      C1115   1.408       .  A
C1115      C1116   1.404       .  A
C1115      F1122   1.358       .  S
C1116      C1117   1.416       .  A
C1116      F1121   1.355       .  S
C1117      C1118   1.424       .  A
C1118      F1119   1.359       .  S
C1123      C1124   1.402       .  A
C1123      C1128   1.398       .  A
C1123      F1130   1.359       .  S
C1124      C1125   1.402       .  A
C1125      C1126   1.403       .  A
C1125      F1132   1.358       .  S
C1126      C1127   1.429       .  A
C1126      F1131   1.346       .  S
C1127      C1128   1.435       .  A
C1128      F1129   1.353       .  S
C1133      C1134   1.407       .  A
C1133      C1138   1.407       .  A
C1133      F1140   1.357       .  S
C1134      C1135   1.407       .  A
C1135      C1136   1.393       .  A
C1135      F1142   1.359       .  S
C1136      C1137   1.419       .  A
C1136      F1141   1.357       .  S
C1137      C1138   1.420       .  A
C1138      F1139   1.355       .  S
C1143      C1144   1.421       .  A
C1143      C1148   1.407       .  A
C1143      F1150   1.355       .  S
C1144      C1145   1.418       .  A
C1145      C1146   1.394       .  A
C1145      F1152   1.357       .  S
C1146      C1147   1.408       .  A
C1146      F1151   1.358       .  S
C1147      C1148   1.407       .  A
C1148      F1149   1.357       .  S
C1153      C1154   1.420       .  A
C1153      C1158   1.399       .  A
C1153      F1160   1.356       .  S
C1154      C1155   1.421       .  A
C1155      C1156   1.402       .  A
C1155      F1162   1.356       .  S
C1156      C1157   1.406       .  A
C1156      F1161   1.358       .  S
C1157      C1158   1.405       .  A
C1158      F1159   1.358       .  S
C1163      C1164   1.420       .  A
C1163      C1168   1.408       .  A
C1163      F1170   1.356       .  S
C1164      C1165   1.437       .  A
C1165      C1166   1.389       .  A
C1165      F1172   1.357       .  S
C1166      C1167   1.386       .  A
C1166      F1171   1.359       .  S
C1167      C1168   1.403       .  A
C1168      F1169   1.357       .  S
C1173      C1174   1.419       .  A
C1173      C1178   1.410       .  A
C1173      F1180   1.355       .  S
C1174      C1175   1.427       .  A
C1175      C1176   1.383       .  A
C1175      F1182   1.357       .  S
C1176      C1177   1.390       .  A
C1176      F1181   1.359       .  S
C1177      C1178   1.406       .  A
C1178      F1179   1.357       .  S
C1183      C1184   1.432   1_554  A
C1183      C1188   1.384       .  A
C1183      F1190   1.357       .  S
C1184      C1185   1.421       .  A
C1185      C1186   1.414       .  A
C1185      F1192   1.356       .  S
C1186      C1187   1.411       .  A
C1186      F1191   1.357       .  S
C1187      C1188   1.401   1_556  A
C1188      F1189   1.360       .  S
C1193      C1194   1.419       .  A
C1193      C1198   1.409       .  A
C1193      F1200   1.354       .  S
C1194      C1195   1.426       .  A
C1195      C1196   1.385       .  A
C1195      F1202   1.357       .  S
C1196      C1197   1.394       .  A
C1196      F1201   1.359       .  S
C1197      C1198   1.408       .  A
C1198      F1199   1.358       .  S
C1203      C1204   1.427       .  A
C1203      C1208   1.393       .  A
C1203      F1210   1.350       .  S
C1204      C1205   1.426       .  A
C1205      C1206   1.407       .  A
C1205      F1212   1.350       .  S
C1206      C1207   1.403       .  A
C1206      F1211   1.358       .  S
C1207      C1208   1.393       .  A
C1208      F1209   1.359       .  S
C1213      C1214   1.401       .  A
C1213      C1218   1.406       .  A
C1213      F1220   1.358       .  S
C1214      C1215   1.392       .  A
C1215      C1216   1.392       .  A
C1215      F1222   1.359       .  S
C1216      C1217   1.425       .  A
C1216      F1221   1.349       .  S
C1217      C1218   1.428       .  A
C1218      F1219   1.352       .  S
C1223      C1224   1.420       .  A
C1223      C1228   1.408       .  A
C1223      F1230   1.354       .  S
C1224      C1225   1.427       .  A
C1225      C1226   1.386       .  A
C1225      F1232   1.358       .  S
C1226      C1227   1.399       .  A
C1226      F1231   1.359       .  S
C1227      C1228   1.408       .  A
C1228      F1229   1.358       .  S
C1233      C1234   1.409       .  A
C1233      C1238   1.414       .  A
C1233      F1240   1.357       .  S
C1234      C1235   1.398   1_655  A
C1235      C1236   1.387       .  A
C1235      F1242   1.360       .  S
C1236      C1237   1.435   1_455  A
C1236      F1241   1.353       .  S
C1237      C1238   1.425       .  A
C1238      F1239   1.357       .  S
C1243      C1244   1.396       .  A
C1243      C1248   1.388       .  A
C1243      F1250   1.359       .  S
C1244      C1245   1.408       .  A
C1245      C1246   1.407       .  A
C1245      F1252   1.358       .  S
C1246      C1247   1.418       .  A
C1246      F1251   1.354       .  S
C1247      C1248   1.427       .  A
C1248      F1249   1.359       .  S
C1253      C1254   1.420       .  A
C1253      C1258   1.405       .  A
C1253      F1260   1.356       .  S
C1254      C1255   1.430       .  A
C1255      C1256   1.395       .  A
C1255      F1262   1.357       .  S
C1256      C1257   1.393       .  A
C1256      F1261   1.358       .  S
C1257      C1258   1.403       .  A
C1258      F1259   1.358       .  S
C1263      C1264   1.404       .  A
C1263      C1268   1.405       .  A
C1263      F1270   1.358       .  S
C1264      C1265   1.397       .  A
C1265      C1266   1.400       .  A
C1265      F1272   1.358       .  S
C1266      C1267   1.433       .  A
C1266      F1271   1.353       .  S
C1267      C1268   1.427       .  A
C1268      F1269   1.359       .  S
C1273      C1274   1.432       .  A
C1273      C1278   1.410       .  A
C1273      F1280   1.353       .  S
C1274      C1275   1.431       .  A
C1275      C1276   1.392       .  A
C1275      F1282   1.351       .  S
C1276      C1277   1.394       .  A
C1276      F1281   1.359       .  S
C1277      C1278   1.404       .  A
C1278      F1279   1.358       .  S
C1283      C1284   1.398       .  A
C1283      C1288   1.402       .  A
C1283      F1290   1.358       .  S
C1284      C1285   1.398       .  A
C1285      C1286   1.404       .  A
C1285      F1292   1.358       .  S
C1286      C1287   1.430       .  A
C1286      F1291   1.357       .  S
C1287      C1288   1.420       .  A
C1288      F1289   1.348       .  S
C1293      C1294   1.396       .  A
C1293      C1298   1.386       .  A
C1293      F1300   1.359       .  S
C1294      C1295   1.413       .  A
C1295      C1296   1.412       .  A
C1295      F1302   1.357       .  S
C1296      C1297   1.418       .  A
C1296      F1301   1.355       .  S
C1297      C1298   1.426       .  A
C1298      F1299   1.356       .  S
C1303      C1304   1.423       .  A
C1303      C1308   1.415       .  A
C1303      F1310   1.354       .  S
C1304      C1305   1.433       .  A
C1305      C1306   1.382       .  A
C1305      F1312   1.356       .  S
C1306      C1307   1.393       .  A
C1306      F1311   1.360       .  S
C1307      C1308   1.407       .  A
C1308      F1309   1.357       .  S
C1313      C1314   1.426       .  A
C1313      C1318   1.386       .  A
C1313      F1320   1.356       .  S
C1314      C1315   1.420       .  A
C1315      C1316   1.410       .  A
C1315      F1322   1.355       .  S
C1316      C1317   1.407       .  A
C1316      F1321   1.357       .  S
C1317      C1318   1.392       .  A
C1318      F1319   1.359       .  S
C1323      C1324   1.427       .  A
C1323      C1328   1.390       .  A
C1323      F1330   1.357       .  S
C1324      C1325   1.420       .  A
C1325      C1326   1.411       .  A
C1325      F1332   1.354       .  S
C1326      C1327   1.409       .  A
C1326      F1331   1.357       .  S
C1327      C1328   1.395       .  A
C1328      F1329   1.359       .  S
C1333      C1334   1.428       .  A
C1333      C1338   1.384       .  A
C1333      F1340   1.356       .  S
C1334      C1335   1.418       .  A
C1335      C1336   1.413       .  A
C1335      F1342   1.355       .  S
C1336      C1337   1.410       .  A
C1336      F1341   1.357       .  S
C1337      C1338   1.390       .  A
C1338      F1339   1.359       .  S
C1343      C1344   1.433       .  A
C1343      C1348   1.389       .  A
C1343      F1350   1.357       .  S
C1344      C1345   1.421       .  A
C1345      C1346   1.415       .  A
C1345      F1352   1.354       .  S
C1346      C1347   1.413       .  A
C1346      F1351   1.357       .  S
C1347      C1348   1.401       .  A
C1348      F1349   1.359       .  S
C1353      C1354   1.437       .  A
C1353      C1358   1.390       .  A
C1353      F1360   1.357       .  S
C1354      C1355   1.419       .  A
C1355      C1356   1.408       .  A
C1355      F1362   1.354       .  S
C1356      C1357   1.403       .  A
C1356      F1361   1.357       .  S
C1357      C1358   1.387       .  A
C1358      F1359   1.359       .  S
C1363      C1364   1.427       .  A
C1363      C1368   1.387       .  A
C1363      F1370   1.356       .  S
C1364      C1365   1.420       .  A
C1365      C1366   1.409       .  A
C1365      F1372   1.354       .  S
C1366      C1367   1.408       .  A
C1366      F1371   1.358       .  S
C1367      C1368   1.392       .  A
C1368      F1369   1.359       .  S
C1373      C1374   1.420       .  A
C1373      C1378   1.413       .  A
C1373      F1380   1.354       .  S
C1374      C1375   1.432       .  A
C1375      C1376   1.388       .  A
C1375      F1382   1.357       .  S
C1376      C1377   1.401       .  A
C1376      F1381   1.359       .  S
C1377      C1378   1.412       .  A
C1378      F1379   1.357       .  S
C1383      C1384   1.419       .  A
C1383      C1388   1.413       .  A
C1383      F1390   1.355       .  S
C1384      C1385   1.427       .  A
C1385      C1386   1.383       .  A
C1385      F1392   1.356       .  S
C1386      C1387   1.390       .  A
C1386      F1391   1.359       .  S
C1387      C1388   1.408       .  A
C1388      F1389   1.357       .  S
C1393      C1394   1.434       .  A
C1393      C1398   1.394       .  A
C1393      F1400   1.344       .  S
C1394      C1395   1.430       .  A
C1395      C1396   1.411       .  A
C1395      F1402   1.357       .  S
C1396      C1397   1.404       .  A
C1396      F1401   1.358       .  S
C1397      C1398   1.391       .  A
C1398      F1399   1.360       .  S
C1403      C1404   1.388       .  A
C1403      C1408   1.391       .  A
C1403      F1410   1.360       .  S
C1404      C1405   1.406   1_556  A
C1405      C1406   1.407       .  A
C1405      F1412   1.357       .  S
C1406      C1407   1.422   1_554  A
C1406      F1411   1.358       .  S
C1407      C1408   1.445       .  A
C1408      F1409   1.356       .  S
C1413      C1414   1.425       .  A
C1413      C1418   1.412       .  A
C1413      F1420   1.352       .  S
C1414      C1415   1.432   1_554  A
C1415      C1416   1.381   1_556  A
C1415      F1422   1.360       .  S
C1416      C1417   1.396       .  A
C1416      F1421   1.360   1_554  S
C1417      C1418   1.407       .  A
C1418      F1419   1.358       .  S
C1423      C1424   1.432       .  A
C1423      C1428   1.390       .  A
C1423      F1430   1.355       .  S
C1424      C1425   1.421       .  A
C1425      C1426   1.405       .  A
C1425      F1432   1.352       .  S
C1426      C1427   1.402       .  A
C1426      F1431   1.358       .  S
C1427      C1428   1.389       .  A
C1428      F1429   1.359       .  S
C1433      C1434   1.429       .  A
C1433      C1438   1.386       .  A
C1433      F1440   1.354       .  S
C1434      C1435   1.421       .  A
C1435      C1436   1.407       .  A
C1435      F1442   1.353       .  S
C1436      C1437   1.404       .  A
C1436      F1441   1.358       .  S
C1437      C1438   1.389       .  A
C1438      F1439   1.359       .  S
C1443      C1444   1.392   1_545  A
C1443      C1448   1.383       .  A
C1443      F1450   1.360       .  S
C1444      C1445   1.405       .  A
C1445      C1446   1.408       .  A
C1445      F1452   1.358       .  S
C1446      C1447   1.421       .  A
C1446      F1451   1.353       .  S
C1447      C1448   1.429   1_565  A
C1448      F1449   1.355       .  S
C1453      C1454   1.422       .  A
C1453      C1458   1.410       .  A
C1453      F1460   1.353       .  S
C1454      C1455   1.424       .  A
C1455      C1456   1.382       .  A
C1455      F1462   1.355   1_545  S
C1456      C1457   1.398       .  A
C1456      F1461   1.360       .  S
C1457      C1458   1.409       .  A
C1458      F1459   1.357       .  S
C1463      C1464   1.416       .  A
C1463      C1468   1.408       .  A
C1463      F1470   1.354       .  S
C1464      C1465   1.427       .  A
C1465      C1466   1.380       .  A
C1465      F1472   1.358       .  S
C1466      C1467   1.393       .  A
C1466      F1471   1.359       .  S
C1467      C1468   1.410       .  A
C1468      F1469   1.358       .  S
C1473      C1474   1.440       .  A
C1473      C1478   1.387       .  A
C1473      F1480   1.357       .  S
C1474      C1475   1.419       .  A
C1475      C1476   1.406       .  A
C1475      F1482   1.356       .  S
C1476      C1477   1.404       .  A
C1476      F1481   1.358       .  S
C1477      C1478   1.385       .  A
C1478      F1479   1.360       .  S
C1483      C1484   1.389       .  A
C1483      C1488   1.383       .  A
C1483      F1490   1.359       .  S
C1484      C1485   1.406       .  A
C1485      C1486   1.410       .  A
C1485      F1492   1.357       .  S
C1486      C1487   1.419       .  A
C1486      F1491   1.354       .  S
C1487      C1488   1.428       .  A
C1488      F1489   1.357       .  S
C1493      C1494   1.434       .  A
C1493      C1498   1.385       .  A
C1493      F1500   1.357       .  S
C1494      C1495   1.420   1_556  A
C1495      C1496   1.405       .  A
C1495      F1502   1.353       .  S
C1496      C1497   1.401   1_554  A
C1496      F1501   1.358       .  S
C1497      C1498   1.386       .  A
C1498      F1499   1.359       .  S
C1503      C1504   1.426   1_554  A
C1503      C1508   1.382       .  A
C1503      F1510   1.357       .  S
C1504      C1505   1.419       .  A
C1505      C1506   1.406   1_556  A
C1505      F1512   1.354       .  S
C1506      C1507   1.406       .  A
C1506      F1511   1.358       .  S
C1507      C1508   1.392       .  A
C1508      F1509   1.359       .  S
C1513      C1514   1.436       .  A
C1513      C1518   1.381       .  A
C1513      F1520   1.357       .  S
C1514      C1515   1.422       .  A
C1515      C1516   1.418       .  A
C1515      F1522   1.354       .  S
C1516      C1517   1.409       .  A
C1516      F1521   1.357       .  S
C1517      C1518   1.392       .  A
C1518      F1519   1.360       .  S
C1523      C1524   1.386       .  A
C1523      C1528   1.382       .  A
C1523      F1530   1.360       .  S
C1524      C1525   1.405       .  A
C1525      C1526   1.415       .  A
C1525      F1532   1.358       .  S
C1526      C1527   1.428       .  A
C1526      F1531   1.350       .  S
C1527      C1528   1.441       .  A
C1528      F1529   1.359       .  S
C1533      C1534   1.434       .  A
C1533      C1538   1.381       .  A
C1533      F1540   1.357       .  S
C1534      C1535   1.422       .  A
C1535      C1536   1.416       .  A
C1535      F1542   1.357       .  S
C1536      C1537   1.410       .  A
C1536      F1541   1.357       .  S
C1537      C1538   1.397       .  A
C1538      F1539   1.360       .  S
C1543      C1544   1.400       .  A
C1543      C1548   1.403       .  A
C1543      F1550   1.358       .  S
C1544      C1545   1.387       .  A
C1545      C1546   1.390       .  A
C1545      F1552   1.359       .  S
C1546      C1547   1.436       .  A
C1546      F1551   1.357       .  S
C1547      C1548   1.421       .  A
C1548      F1549   1.352       .  S
C1553      C1554   1.404       .  A
C1553      C1558   1.406       .  A
C1553      F1560   1.358       .  S
C1554      C1555   1.390       .  A
C1555      C1556   1.391       .  A
C1555      F1562   1.360       .  S
C1556      C1557   1.438       .  A
C1556      F1561   1.355       .  S
C1557      C1558   1.422       .  A
C1558      F1559   1.358       .  S
C1563      C1564   1.444       .  A
C1563      C1568   1.387       .  A
C1563      F1570   1.355       .  S
C1564      C1565   1.426       .  A
C1565      C1566   1.411       .  A
C1565      F1572   1.359       .  S
C1566      C1567   1.405       .  A
C1566      F1571   1.357       .  S
C1567      C1568   1.388       .  A
C1568      F1569   1.360       .  S
C1573      C1574   1.390       .  A
C1573      C1578   1.382       .  A
C1573      F1580   1.360       .  S
C1574      C1575   1.406       .  A
C1575      C1576   1.413       .  A
C1575      F1582   1.358       .  S
C1576      C1577   1.425       .  A
C1576      F1581   1.351       .  S
C1577      C1578   1.435       .  A
C1578      F1579   1.360       .  S
C1583      C1584   1.429       .  A
C1583      C1588   1.386       .  A
C1583      F1590   1.359       .  S
C1584      C1585   1.416       .  A
C1585      C1586   1.406       .  A
C1585      F1592   1.355       .  S
C1586      C1587   1.406       .  A
C1586      F1591   1.357       .  S
C1587      C1588   1.391       .  A
C1588      F1589   1.359       .  S
C1593      C1594   1.426       .  A
C1593      C1598   1.385       .  A
C1593      F1600   1.356       .  S
C1594      C1595   1.419       .  A
C1595      C1596   1.412       .  A
C1595      F1602   1.354       .  S
C1596      C1597   1.411       .  A
C1596      F1601   1.357       .  S
C1597      C1598   1.395       .  A
C1598      F1599   1.359       .  S
C1603      C1604   1.418       .  A
C1603      C1608   1.411       .  A
C1603      F1610   1.354       .  S
C1604      C1605   1.432       .  A
C1605      C1606   1.389       .  A
C1605      F1612   1.357       .  S
C1606      C1607   1.400       .  A
C1606      F1611   1.359       .  S
C1607      C1608   1.413       .  A
C1608      F1609   1.357       .  S
C1613      C1614   1.437       .  A
C1613      C1618   1.391       .  A
C1613      F1620   1.357       .  S
C1614      C1615   1.420       .  A
C1615      C1616   1.410       .  A
C1615      F1622   1.354       .  S
C1616      C1617   1.404       .  A
C1616      F1621   1.357       .  S
C1617      C1618   1.387       .  A
C1618      F1619   1.359       .  S
C1623      C1624   1.405       .  A
C1623      C1628   1.401       .  A
C1623      F1630   1.358       .  S
C1624      C1625   1.406       .  A
C1625      C1626   1.402       .  A
C1625      F1632   1.358       .  S
C1626      C1627   1.421       .  A
C1626      F1631   1.356       .  S
C1627      C1628   1.421       .  A
C1628      F1629   1.356       .  S
C1633      C1634   1.404       .  A
C1633      C1638   1.409       .  A
C1633      F1640   1.357       .  S
C1634      C1635   1.385       .  A
C1635      C1636   1.389       .  A
C1635      F1642   1.359       .  S
C1636      C1637   1.438       .  A
C1636      F1641   1.357       .  S
C1637      C1638   1.419       .  A
C1638      F1639   1.355       .  S
C1643      C1644   1.387       .  A
C1643      C1648   1.390       .  A
C1643      F1650   1.359       .  S
C1644      C1645   1.403       .  A
C1645      C1646   1.408       .  A
C1645      F1652   1.358       .  S
C1646      C1647   1.423       .  A
C1646      F1651   1.357       .  S
C1647      C1648   1.438       .  A
C1648      F1649   1.356       .  S
C1653      C1654   1.393       .  A
C1653      C1658   1.386       .  A
C1653      F1660   1.359       .  S
C1654      C1655   1.408       .  A
C1655      C1656   1.405       .  A
C1655      F1662   1.358       .  S
C1656      C1657   1.415       .  A
C1656      F1661   1.356       .  S
C1657      C1658   1.428       .  A
C1658      F1659   1.359       .  S
C1663      C1664   1.428   1_565  A
C1663      C1668   1.383       .  A
C1663      F1670   1.356       .  S
C1664      C1665   1.419       .  A
C1665      C1666   1.412       .  A
C1665      F1672   1.355       .  S
C1666      C1667   1.408   1_545  A
C1666      F1671   1.357       .  S
C1667      C1668   1.387       .  A
C1668      F1669   1.359       .  S
C1673      C1674   1.420   1_565  A
C1673      C1678   1.405       .  A
C1673      F1680   1.353       .  S
C1674      C1675   1.438       .  A
C1675      C1676   1.391       .  A
C1675      F1682   1.357       .  S
C1676      C1677   1.387       .  A
C1676      F1681   1.359       .  S
C1677      C1678   1.401   1_545  A
C1678      F1679   1.358       .  S
C1683      C1684   1.412       .  A
C1683      C1688   1.411       .  A
C1683      F1690   1.357       .  S
C1684      C1685   1.396       .  A
C1685      C1686   1.385       .  A
C1685      F1692   1.359       .  S
C1686      C1687   1.426       .  A
C1686      F1691   1.357       .  S
C1687      C1688   1.418       .  A
C1688      F1689   1.354       .  S
C1693      C1694   1.429       .  A
C1693      C1698   1.386       .  A
C1693      F1700   1.356       .  S
C1694      C1695   1.421       .  A
C1695      C1696   1.412       .  A
C1695      F1702   1.354       .  S
C1696      C1697   1.407       .  A
C1696      F1701   1.357       .  S
C1697      C1698   1.388       .  A
C1698      F1699   1.359       .  S
C1703      C1704   1.427       .  A
C1703      C1708   1.387       .  A
C1703      F1710   1.345       .  S
C1704      C1705   1.430       .  A
C1705      C1706   1.413       .  A
C1705      F1712   1.357       .  S
C1706      C1707   1.405       .  A
C1706      F1711   1.357       .  S
C1707      C1708   1.396       .  A
C1708      F1709   1.360       .  S
C1713      C1714   1.404       .  A
C1713      C1718   1.407       .  A
C1713      F1720   1.358       .  S
C1714      C1715   1.388       .  A
C1715      C1716   1.391       .  A
C1715      F1722   1.359       .  S
C1716      C1717   1.438       .  A
C1716      F1721   1.357       .  S
C1717      C1718   1.421       .  A
C1718      F1719   1.355       .  S
C1723      C1724   1.395       .  A
C1723      C1728   1.382       .  A
C1723      F1730   1.360       .  S
C1724      C1725   1.410       .  A
C1725      C1726   1.415       .  A
C1725      F1732   1.357       .  S
C1726      C1727   1.420       .  A
C1726      F1731   1.355       .  S
C1727      C1728   1.433       .  A
C1728      F1729   1.357       .  S
C1733      C1734   1.410       .  A
C1733      C1738   1.415       .  A
C1733      F1740   1.357       .  S
C1734      C1735   1.388       .  A
C1735      C1736   1.382       .  A
C1735      F1742   1.360       .  S
C1736      C1737   1.428       .  A
C1736      F1741   1.356       .  S
C1737      C1738   1.419       .  A
C1738      F1739   1.355       .  S
C1743      C1744   1.386       .  A
C1743      C1748   1.386       .  A
C1743      F1750   1.359       .  S
C1744      C1745   1.400       .  A
C1745      C1746   1.408       .  A
C1745      F1752   1.358       .  S
C1746      C1747   1.429       .  A
C1746      F1751   1.354       .  S
C1747      C1748   1.430       .  A
C1748      F1749   1.356       .  S
