geometry optimzed in LAMMPS
_audit_creation_date              2020-11-30 
_audit_creation_method            'lammps2cif' 
_symmetry_space_group_name_H-M    'P1' 
_symmetry_Int_Tables_number       1 
_symmetry_cell_setting            triclinic 
loop_ 
_symmetry_equiv_pos_as_xyz 
  x,y,z 
_cell_length_a                    53.55063126 
_cell_length_b                    53.61911371146154 
_cell_length_c                    53.64625808531831 
_cell_angle_alpha                 89.99790932928585 
_cell_angle_beta                  90.043815920075 
_cell_angle_gamma                 89.8862701332318 
loop_ 
_atom_site_label 
_atom_site_type_symbol 
_atom_site_fract_x 
_atom_site_fract_y 
_atom_site_fract_z 
_atom_site_charge 
C1          C  0.02045444  0.98669927  0.99001769     0.01900
C2          C  0.01310705  0.00756441  0.97542277     0.01900
C3          C  0.99263805  0.02268377  0.98316323     0.01900
C4          C  0.97826913  0.01549160  0.00428550     0.01900
C5          C  0.98615458  0.99507391  0.01915468     0.01900
C6          C  0.00577017  0.97949915  0.01076061     0.01900
O7          O  0.02411094  0.20095238  0.86171244    -0.80500
O8          O  0.97470086  0.30284893  0.86069478    -0.80600
O9          O  0.95847578  0.24963538  0.83691888    -0.80600
O10         O  0.03752000  0.25268353  0.83500373    -0.80500
O11         O  0.94169153  0.26817838  0.86889318    -0.80600
O12         O  0.05744077  0.23626606  0.86597677    -0.80600
O13         O  0.99790473  0.28477522  0.83187892    -0.80500
O14         O  0.99951408  0.21747598  0.83298605    -0.80600
C15         C  0.01557159  0.20147090  0.83952999     1.09200
C16         C  0.98203109  0.30094348  0.83813691     1.09000
C17         C  0.94003491  0.26077514  0.84656200     1.09200
C18         C  0.05715865  0.24284420  0.84324990     1.09100
O19         O  0.03514674  0.25341641  0.91243927    -0.80500
O20         O  0.96595544  0.25229976  0.91417835    -0.80600
O21         O  0.98417124  0.19481580  0.87970482    -0.80600
O22         O  0.01540771  0.30942728  0.87678561    -0.80500
O23         O  0.99912193  0.29158032  0.90916940    -0.80600
O24         O  0.00259763  0.21309228  0.91073724    -0.80500
O25         O  0.05122907  0.27688581  0.88286660    -0.80500
O26         O  0.94885336  0.22751279  0.88600155    -0.80600
Co27       Co  0.02718945  0.22808466  0.88752162     1.51500
Co28       Co  0.97300021  0.27666178  0.88801309     1.51700
Co29       Co  0.97494948  0.22500668  0.85900223     1.51600
Co30       Co  0.02348700  0.27841420  0.85697153     1.51500
O31         O  0.99955479  0.25201038  0.87300270    -1.42500
C32         C  0.05088989  0.26949425  0.90550664     1.09100
C33         C  0.95037209  0.23563222  0.90828644     1.09200
C34         C  0.99153394  0.19417005  0.90217235     1.09100
C35         C  0.00915727  0.31043253  0.89950207     1.09100
O36         O  0.86761968  0.02719990  0.19860680    -0.80500
O37         O  0.86020151  0.97281438  0.29763536    -0.80600
O38         O  0.83727899  0.96092764  0.24349973    -0.80600
O39         O  0.84020330  0.04060342  0.24981602    -0.80500
O40         O  0.86801986  0.94153892  0.26157232    -0.80600
O41         O  0.87400278  0.05790478  0.23558028    -0.80600
O42         O  0.83312775  0.99881900  0.28037899    -0.80500
O43         O  0.83714996  0.00361043  0.21332785    -0.80600
C44         C  0.84478704  0.02037119  0.19857225     1.09200
C45         C  0.83818351  0.98203802  0.29617129     1.09000
C46         C  0.84560562  0.94161529  0.25419269     1.09200
C47         C  0.85100000  0.05948475  0.24079000     1.09100
O48         O  0.91773847  0.03199269  0.25312079    -0.80500
O49         O  0.91503622  0.96364928  0.24802188    -0.80600
O50         O  0.88263210  0.98620088  0.19087598    -0.80600
O51         O  0.87811039  0.01209586  0.30691108    -0.80500
O52         O  0.91058395  0.99465231  0.28999753    -0.80600
O53         O  0.91505205  0.00146151  0.20985949    -0.80500
O54         O  0.88770603  0.04822277  0.27643368    -0.80500
O55         O  0.88637665  0.94925243  0.22209410    -0.80600
Co56       Co  0.89321699  0.02677602  0.22636722     1.51500
Co57       Co  0.88851626  0.97095776  0.27229690     1.51700
Co58       Co  0.86107165  0.97702359  0.22019648     1.51600
Co59       Co  0.86005410  0.02289550  0.27559903     1.51500
O60         O  0.87584635  0.99938894  0.24858627    -1.42500
C61         C  0.91064016  0.04676379  0.27022000     1.09100
C62         C  0.90850721  0.94872320  0.23091235     1.09200
C63         C  0.90544844  0.99228952  0.19032902     1.09100
C64         C  0.90047552  0.00461435  0.30877652     1.09100
C65         C  0.02045430  0.01597564  0.50565478     0.01900
C66         C  0.00597499  0.02228862  0.48445894     0.01900
C67         C  0.98611329  0.00654523  0.47710591     0.01900
C68         C  0.97910740  0.98591558  0.49223941     0.01900
C69         C  0.99352089  0.97985190  0.51371153     0.01900
C70         C  0.01327682  0.99580952  0.52107960     0.01900
O71         O  0.02769803  0.79948008  0.63598074    -0.80500
O72         O  0.97205665  0.70047227  0.63591943    -0.80600
O73         O  0.95981159  0.75406404  0.66086771    -0.80600
O74         O  0.03883642  0.74647410  0.66232838    -0.80500
O75         O  0.94147673  0.73779467  0.62858063    -0.80600
O76         O  0.05826010  0.76209991  0.63035983    -0.80600
O77         O  0.99621983  0.71641539  0.66516564    -0.80500
O78         O  0.00207083  0.78485769  0.66479594    -0.80600
C79         C  0.01955725  0.79940403  0.65834898     1.09200
C80         C  0.97946291  0.70117928  0.65854700     1.09000
C81         C  0.94060814  0.74440049  0.65124090     1.09200
C82         C  0.05850795  0.75548537  0.65302266     1.09100
O83         O  0.03502057  0.74670783  0.58447423    -0.80500
O84         O  0.96689768  0.75224423  0.58329108    -0.80600
O85         O  0.98766229  0.80830150  0.61880341    -0.80600
O86         O  0.01239589  0.69148759  0.62004642    -0.80500
O87         O  0.99694243  0.70997705  0.58749927    -0.80600
O88         O  0.00451521  0.78965841  0.58702737    -0.80500
O89         O  0.04941661  0.72199746  0.61423281    -0.80500
O90         O  0.95077693  0.77761410  0.61153487    -0.80600
Co91       Co  0.02852318  0.77249498  0.60962835     1.51500
Co92       Co  0.97209890  0.72710373  0.60909604     1.51700
Co93       Co  0.97703287  0.77836327  0.63884235     1.51600
Co94       Co  0.02220761  0.72189220  0.64020364     1.51500
O95         O  0.99999204  0.75001457  0.62440707    -1.42500
C96         C  0.04956526  0.72943680  0.59164032     1.09100
C97         C  0.95182472  0.76939977  0.58919239     1.09200
C98         C  0.99471843  0.80903288  0.59629503     1.09100
C99         C  0.00678924  0.69082628  0.59709436     1.09100
O100        O  0.19905426  0.86382957  0.02801380    -0.80500
O101        O  0.30072970  0.86594309  0.97602140    -0.80600
O102        O  0.24726449  0.83930503  0.96187548    -0.80600
O103        O  0.25320866  0.83751584  0.04032660    -0.80500
O104        O  0.26445635  0.87148207  0.94402357    -0.80600
O105        O  0.23529154  0.86827760  0.05989206    -0.80600
O106        O  0.28402893  0.83627518  0.99905128    -0.80500
O107        O  0.21612493  0.83555744  0.00361809    -0.80600
C108        C  0.19967196  0.84167559  0.01932395     1.09200
C109        C  0.30012729  0.84336635  0.98351684     1.09000
C110        C  0.25781618  0.84880218  0.94302413     1.09200
C111        C  0.24268589  0.84581352  0.05965354     1.09100
O112        O  0.25151357  0.91515784  0.03819372    -0.80500
O113        O  0.24717142  0.91706047  0.96747656    -0.80600
O114        O  0.19219692  0.88171297  0.98828167    -0.80600
O115        O  0.30725026  0.88210178  0.01661041    -0.80500
O116        O  0.28869860  0.91420289  0.99994071    -0.80600
O117        O  0.21034711  0.91316518  0.00628994    -0.80500
O118        O  0.27569344  0.88560695  0.05320913    -0.80500
O119        O  0.22350017  0.88721624  0.95188519    -0.80600
Co120      Co  0.22618132  0.89001793  0.03035491     1.51500
Co121      Co  0.27313695  0.89191791  0.97462073     1.51700
Co122      Co  0.22246608  0.86114898  0.97856196     1.51600
Co123      Co  0.27740990  0.86066544  0.02518353     1.51500
O124        O  0.24980379  0.87616407  0.00214136    -1.42500
C125        C  0.26784312  0.90805778  0.05368188     1.09100
C126        C  0.23010815  0.90996294  0.95269118     1.09200
C127        C  0.19134094  0.90418256  0.99568881     1.09100
C128        C  0.30775571  0.90485581  0.01030891     1.09100
O129        O  0.00497392  0.78677302  0.15895631    -0.80500
O130        O  0.00598921  0.71793143  0.16372033    -0.80600
O131        O  0.94563738  0.76781385  0.13013897    -0.80600
O132        O  0.05987381  0.73356370  0.12286893    -0.80500
O133        O  0.96499133  0.75142277  0.16179129    -0.80600
O134        O  0.04386787  0.75273587  0.15467724    -0.80600
O135        O  0.02721621  0.69923905  0.13370288    -0.80500
O136        O  0.97940099  0.80248203  0.13070438    -0.80600
C137        C  0.98896591  0.80287542  0.15245759     1.09200
C138        C  0.02143595  0.70146977  0.15664835     1.09000
C139        C  0.94571211  0.76204512  0.15302462     1.09200
C140        C  0.06220655  0.74165390  0.14501909     1.09100
O141        O  0.05207292  0.77235750  0.10332491    -0.80500
O142        O  0.95005908  0.72575667  0.11629293    -0.80600
O143        O  0.99737796  0.78806398  0.08142396    -0.80600
O144        O  0.99965685  0.70782828  0.08670304    -0.80500
O145        O  0.98517238  0.69219729  0.12113565    -0.80600
O146        O  0.01871260  0.80645020  0.11074195    -0.80500
O147        O  0.03218570  0.74700923  0.07769184    -0.80500
O148        O  0.96327381  0.74742549  0.08394208    -0.80600
Co149      Co  0.02777863  0.77694042  0.13208583     1.51500
Co150      Co  0.97884021  0.72447308  0.14006884     1.51700
Co151      Co  0.97420458  0.77406477  0.10668393     1.51600
Co152      Co  0.02717678  0.72414377  0.10551173     1.51500
O153        O  0.00187289  0.74992379  0.12098534    -1.42500
C154        C  0.04872118  0.76322419  0.08157773     1.09100
C155        C  0.94747061  0.73282232  0.09379270     1.09200
C156        C  0.00960440  0.80682380  0.08898660     1.09100
C157        C  0.98973825  0.68977776  0.09807471     1.09100
C158        C  0.26550277  0.77042396  0.24487912     0.01900
C159        C  0.24442242  0.76425187  0.22995360     0.01900
C160        C  0.22901942  0.74368256  0.23642345     0.01900
C161        C  0.23598953  0.72779985  0.25648333     0.01900
C162        C  0.25678075  0.73436260  0.27166472     0.01900
C163        C  0.27257674  0.75450019  0.26477512     0.01900
O164        O  0.21884934  0.66549269  0.50243282    -0.80500
O165        O  0.28821534  0.66147873  0.50008362    -0.80600
O166        O  0.23608206  0.62874352  0.55794253    -0.80600
O167        O  0.26680736  0.62916494  0.44316102    -0.80500
O168        O  0.25500297  0.65972186  0.54009090    -0.80600
O169        O  0.25067963  0.66164667  0.46125055    -0.80600
O170        O  0.30280780  0.63177714  0.47551351    -0.80500
O171        O  0.20083209  0.63673676  0.52574828    -0.80600
C172        C  0.20292582  0.65933874  0.51865635     1.09200
C173        C  0.30325756  0.65418431  0.48339531     1.09000
C174        C  0.24401502  0.65102701  0.55894037     1.09200
C175        C  0.26033144  0.65186913  0.44209192     1.09100
O176        O  0.22523655  0.61496901  0.44914541    -0.80500
O177        O  0.27522924  0.60928381  0.55142965    -0.80600
O178        O  0.21006626  0.58796287  0.50131086    -0.80600
O179        O  0.28905274  0.58360048  0.49716708    -0.80500
O180        O  0.30814881  0.61411496  0.51609708    -0.80600
O181        O  0.19315937  0.62110910  0.48513070    -0.80500
O182        O  0.24766671  0.58378101  0.46421163    -0.80500
O183        O  0.25013624  0.58196944  0.53365749    -0.80600
Co184      Co  0.22469602  0.64036412  0.47671807     1.51500
Co185      Co  0.27895056  0.63612334  0.52478574     1.51700
Co186      Co  0.22640638  0.60896997  0.52701466     1.51600
Co187      Co  0.27440417  0.60738346  0.47279091     1.51500
O188        O  0.25119419  0.62321330  0.50024162    -1.42500
C189        C  0.23141948  0.59203247  0.44905188     1.09100
C190        C  0.26626367  0.58726937  0.54994410     1.09200
C191        C  0.19155191  0.59824708  0.49099051     1.09100
C192        C  0.30795352  0.59165167  0.50885072     1.09100
C193        C  0.23449998  0.76959424  0.75740772     0.01900
C194        C  0.22832911  0.75420957  0.73681174     0.01900
C195        C  0.24468500  0.73485343  0.72919242     0.01900
C196        C  0.26586046  0.72872028  0.74404513     0.01900
C197        C  0.27164619  0.74345176  0.76551963     0.01900
C198        C  0.25517910  0.76319285  0.77285206     0.01900
O199        O  0.45011888  0.77674374  0.88739832    -0.80500
O200        O  0.55007618  0.72556740  0.89293760    -0.80600
O201        O  0.49682457  0.71113963  0.91630955    -0.80600
O202        O  0.50127288  0.79224224  0.91320179    -0.80500
O203        O  0.51526733  0.69224554  0.88559984    -0.80600
O204        O  0.48565764  0.80890966  0.87980470    -0.80600
O205        O  0.53170109  0.75093102  0.91968298    -0.80500
O206        O  0.46618081  0.75323024  0.91724402    -0.80600
C207        C  0.45102080  0.76988252  0.91021862     1.09200
C208        C  0.54807420  0.73479307  0.91483898     1.09000
C209        C  0.50765378  0.69193160  0.90790717     1.09200
C210        C  0.49151732  0.81086503  0.90255776     1.09100
O211        O  0.50307417  0.78412894  0.83571892    -0.80500
O212        O  0.50050911  0.71356277  0.83863828    -0.80600
O213        O  0.44291694  0.73599538  0.87180467    -0.80600
O214        O  0.55839320  0.76452532  0.87408883    -0.80500
O215        O  0.54080253  0.74658505  0.84230801    -0.80600
O216        O  0.46176174  0.75148564  0.83955660    -0.80500
O217        O  0.52683521  0.80052926  0.86517874    -0.80500
O218        O  0.47485434  0.69936308  0.86757185    -0.80600
Co219      Co  0.47720673  0.77744109  0.86097318     1.51500
Co220      Co  0.52463400  0.72225846  0.86490465     1.51700
Co221      Co  0.47287999  0.72709750  0.89291763     1.51600
Co222      Co  0.52693703  0.77488588  0.89278580     1.51500
O223        O  0.50039699  0.75039009  0.87765132    -1.42500
C224        C  0.51977601  0.79953160  0.84247068     1.09100
C225        C  0.48326728  0.69883276  0.84533585     1.09200
C226        C  0.44243176  0.74179322  0.84890294     1.09100
C227        C  0.55966201  0.75702654  0.85169508     1.09100
C228        C  0.73967440  0.26531736  0.73069790     0.01900
C229        C  0.76113982  0.27200255  0.74514234     0.01900
C230        C  0.76848572  0.25666419  0.76553226     0.01900
C231        C  0.75300201  0.23666482  0.77321660     0.01900
C232        C  0.73158175  0.23008696  0.75913577     0.01900
C233        C  0.72396929  0.24527347  0.73867471     0.01900
O234        O  0.88376450  0.45089656  0.77275953    -0.80500
O235        O  0.89191559  0.55085872  0.72218313    -0.80600
O236        O  0.91291683  0.49732850  0.70752588    -0.80600
O237        O  0.90989396  0.50098439  0.78862685    -0.80500
O238        O  0.88232154  0.51633682  0.68902662    -0.80600
O239        O  0.87598968  0.48652843  0.80511163    -0.80600
O240        O  0.91821855  0.53233974  0.74807543    -0.80500
O241        O  0.91390061  0.46590275  0.74878603    -0.80600
C242        C  0.90635803  0.45072973  0.76516303     1.09200
C243        C  0.91373196  0.54868774  0.73171711     1.09000
C244        C  0.90449169  0.50832004  0.68849880     1.09200
C245        C  0.89882748  0.49205878  0.80734713     1.09100
O246        O  0.83265843  0.50413060  0.77884149    -0.80500
O247        O  0.83559110  0.50367741  0.71164020    -0.80600
O248        O  0.86835129  0.44348580  0.73168878    -0.80600
O249        O  0.87365236  0.55983850  0.76142061    -0.80500
O250        O  0.84107943  0.54365833  0.74380675    -0.80600
O251        O  0.83616827  0.46227189  0.74736580    -0.80500
O252        O  0.86196240  0.52769801  0.79608412    -0.80500
O253        O  0.86303931  0.47675713  0.69628571    -0.80600
Co254      Co  0.85764581  0.47811868  0.77322492     1.51500
Co255      Co  0.86277630  0.52656181  0.71934053     1.51700
Co256      Co  0.88931773  0.47362652  0.72315387     1.51600
Co257      Co  0.89061460  0.52750443  0.77143972     1.51500
O258        O  0.87500433  0.50140476  0.74674959    -1.42500
C259        C  0.83922191  0.52065410  0.79438696     1.09100
C260        C  0.84116396  0.48627143  0.69675235     1.09200
C261        C  0.84559665  0.44277615  0.73798879     1.09100
C262        C  0.85135425  0.56210396  0.75400453     1.09100
O263        O  0.00228438  0.21425460  0.33405342    -0.80500
O264        O  0.99736752  0.28408644  0.33221692    -0.80600
O265        O  0.94537029  0.22938257  0.37001271    -0.80600
O266        O  0.05660590  0.27199280  0.36456302    -0.80500
O267        O  0.96097635  0.24749603  0.33737197    -0.80600
O268        O  0.03891280  0.25112795  0.33456574    -0.80600
O269        O  0.01995885  0.30390912  0.36029238    -0.80500
O270        O  0.98111289  0.19688616  0.36479524    -0.80600
C271        C  0.98731608  0.19787686  0.34194496     1.09200
C272        C  0.01179476  0.30174613  0.33810582     1.09000
C273        C  0.94322608  0.23576192  0.34731402     1.09200
C274        C  0.05734273  0.26342615  0.34253118     1.09100
O275        O  0.05503096  0.23138112  0.38259854    -0.80500
O276        O  0.94807499  0.27036383  0.38603429    -0.80600
O277        O  0.00463955  0.21220371  0.41155777    -0.80600
O278        O  0.00050716  0.29088760  0.40952244    -0.80500
O279        O  0.97951381  0.30637288  0.37841037    -0.80600
O280        O  0.02311381  0.19462231  0.38002497    -0.80500
O281        O  0.03739465  0.25404715  0.41208573    -0.80500
O282        O  0.96859919  0.24937455  0.41495014    -0.80600
Co283      Co  0.02742746  0.22526321  0.35808132     1.51500
Co284      Co  0.97389496  0.27464208  0.35866665     1.51700
Co285      Co  0.97731833  0.22436122  0.38996805     1.51600
Co286      Co  0.02622939  0.27777939  0.38655088     1.51500
O287        O  0.00127970  0.25049657  0.37327762    -1.42500
C288        C  0.05458940  0.23964163  0.40480458     1.09100
C289        C  0.95075642  0.26337672  0.40861595     1.09200
C290        C  0.01633346  0.19376620  0.40266888     1.09100
C291        C  0.98747216  0.30842130  0.40057451     1.09100
C292        C  0.26695906  0.22894516  0.25802189     0.01900
C293        C  0.24619133  0.23525139  0.27315553     0.01900
C294        C  0.23060352  0.25554107  0.26635598     0.01900
C295        C  0.23771327  0.27148722  0.24647300     0.01900
C296        C  0.25831012  0.26503514  0.23099331     0.01900
C297        C  0.27373647  0.24450059  0.23770562     0.01900
O298        O  0.21489818  0.33120218  0.00681869    -0.80500
O299        O  0.28552905  0.33523708  0.00554925    -0.80600
O300        O  0.22968825  0.35861348  0.94626273    -0.80600
O301        O  0.26645237  0.37430558  0.05841994    -0.80500
O302        O  0.25049100  0.33108112  0.96761464    -0.80600
O303        O  0.24985503  0.34032722  0.04403892    -0.80600
O304        O  0.30128490  0.36795428  0.02461751    -0.80500
O305        O  0.19574454  0.35678186  0.98086357    -0.80600
C306        C  0.19805587  0.33537245  0.99084649     1.09200
C307        C  0.30208215  0.34485048  0.01930293     1.09000
C308        C  0.23860809  0.33673770  0.94814826     1.09200
C309        C  0.26064761  0.35156485  0.06164439     1.09100
O310        O  0.22497136  0.38916085  0.05216493    -0.80500
O311        O  0.26942228  0.37849872  0.94742853    -0.80600
O312        O  0.20640530  0.40801554  0.99666245    -0.80600
O313        O  0.28539972  0.41216205  0.99727631    -0.80500
O314        O  0.30431492  0.37982495  0.98164008    -0.80600
O315        O  0.19089117  0.37827857  0.01943930    -0.80500
O316        O  0.24639564  0.41691152  0.03079288    -0.80500
O317        O  0.24522149  0.40838906  0.96191744    -0.80600
Co318      Co  0.22272673  0.35981695  0.02834102     1.51500
Co319      Co  0.27485098  0.35656409  0.97775945     1.51700
Co320      Co  0.22162516  0.38318465  0.97394876     1.51600
Co321      Co  0.27252877  0.39215141  0.02536246     1.51500
O322        O  0.24796064  0.37297805  0.00131598    -1.42500
C323        C  0.23160740  0.41166134  0.04824419     1.09100
C324        C  0.26041319  0.40046816  0.94572984     1.09200
C325        C  0.18861420  0.39972164  0.00972748     1.09100
C326        C  0.30448518  0.40280443  0.98708544     1.09100
C327        C  0.24608292  0.26540868  0.77431710     0.01900
C328        C  0.22851905  0.24775507  0.76488430     0.01900
C329        C  0.23836972  0.22891391  0.74845962     0.01900
C330        C  0.25648677  0.23712021  0.73053774     0.01900
C331        C  0.27159266  0.25811768  0.73681187     0.01900
C332        C  0.26643282  0.27215380  0.75866620     0.01900
O333        O  0.55210048  0.26993746  0.61756182    -0.80500
O334        O  0.44373115  0.23096988  0.61163481    -0.80600
O335        O  0.49837003  0.21258716  0.58498855    -0.80600
O336        O  0.50045080  0.28854576  0.58656532    -0.80500
O337        O  0.47647716  0.19527958  0.61461420    -0.80600
O338        O  0.51940565  0.30549718  0.61828715    -0.80600
O339        O  0.46379765  0.25212125  0.58288209    -0.80500
O340        O  0.53501955  0.24975572  0.58630297    -0.80600
C341        C  0.55242773  0.26307433  0.59493188     1.09200
C342        C  0.44548248  0.23892545  0.58935267     1.09000
C343        C  0.48519374  0.19456431  0.59259182     1.09200
C344        C  0.51259033  0.30658779  0.59557500     1.09100
O345        O  0.49721254  0.28560246  0.66410707    -0.80500
O346        O  0.49477918  0.21326373  0.66270559    -0.80600
O347        O  0.55220523  0.22877118  0.63349684    -0.80600
O348        O  0.44225929  0.27129177  0.62935877    -0.80500
O349        O  0.45815976  0.25070537  0.66070481    -0.80600
O350        O  0.53469859  0.24863806  0.66433483    -0.80500
O351        O  0.47761015  0.30413875  0.63327911    -0.80500
O352        O  0.51692280  0.19568059  0.63299624    -0.80600
Co353      Co  0.52331061  0.27496500  0.64075092     1.51500
Co354      Co  0.47069707  0.22492773  0.63741986     1.51700
Co355      Co  0.52322444  0.22417707  0.60959624     1.51600
Co356      Co  0.47337039  0.27659213  0.60830209     1.51500
O357        O  0.49766503  0.25012230  0.62413262    -1.42500
C358        C  0.48422987  0.30355738  0.65600589     1.09100
C359        C  0.50889470  0.19586806  0.65524851     1.09200
C360        C  0.55277280  0.23571501  0.65615247     1.09100
C361        C  0.44054123  0.26356514  0.65170391     1.09100
O362        O  0.33539082  0.00111299  0.21881015    -0.80500
O363        O  0.33785694  0.00175390  0.28718969    -0.80600
O364        O  0.36814649  0.94292887  0.23360093    -0.80600
O365        O  0.37434541  0.05732589  0.26835269    -0.80500
O366        O  0.33782057  0.96128433  0.25361823    -0.80600
O367        O  0.34116948  0.04089240  0.25176099    -0.80600
O368        O  0.36892814  0.02373856  0.30296731    -0.80500
O369        O  0.36305906  0.97724277  0.19980678    -0.80600
C370        C  0.34095528  0.98595852  0.20172747     1.09200
C371        C  0.34594089  0.01774197  0.30257391     1.09000
C372        C  0.34601510  0.94245087  0.24194289     1.09200
C373        C  0.35167580  0.05940663  0.26181413     1.09100
O374        O  0.38909387  0.05088764  0.22734984    -0.80500
O375        O  0.38610358  0.94716083  0.27413399    -0.80600
O376        O  0.41318215  0.99740746  0.21089976    -0.80600
O377        O  0.41572543  0.99921933  0.28942766    -0.80500
O378        O  0.38373486  0.98209886  0.30781723    -0.80600
O379        O  0.38152132  0.01667937  0.19412828    -0.80500
O380        O  0.41900789  0.03340182  0.24952755    -0.80500
O381        O  0.41580620  0.96257932  0.25016910    -0.80600
Co382      Co  0.36198485  0.02509333  0.22557181     1.51500
Co383      Co  0.36167734  0.97543587  0.27808860     1.51700
Co384      Co  0.39007330  0.97268727  0.22586213     1.51600
Co385      Co  0.39409699  0.02571348  0.27532196     1.51500
O386        O  0.37707096  0.99967089  0.25127041    -1.42500
C387        C  0.41190400  0.04972020  0.23395458     1.09100
C388        C  0.40816565  0.94619108  0.26533327     1.09200
C389        C  0.40382740  0.00880111  0.19251232     1.09100
C390        C  0.40658231  0.98816793  0.30816074     1.09100
C391        C  0.49255284  0.02118303  0.51578572     0.01900
C392        C  0.51292777  0.00606155  0.52355369     0.01900
C393        C  0.51991389  0.98487661  0.50933400     0.01900
C394        C  0.50486293  0.97713064  0.48903732     0.01900
C395        C  0.48484509  0.99249698  0.48081361     0.01900
C396        C  0.47762772  0.01346923  0.49527082     0.01900
O397        O  0.46995317  0.74532681  0.41854404    -0.80500
O398        O  0.53670583  0.75030113  0.41791935    -0.80600
O399        O  0.49074683  0.69033037  0.37942285    -0.80600
O400        O  0.51399552  0.80741351  0.38270975    -0.80500
O401        O  0.50699461  0.70726088  0.41239893    -0.80600
O402        O  0.49895196  0.78834168  0.41497796    -0.80600
O403        O  0.55108368  0.77692450  0.38980276    -0.80500
O404        O  0.45405229  0.72056594  0.38958974    -0.80600
C405        C  0.45552913  0.72775830  0.41229148     1.09200
C406        C  0.55068146  0.76846489  0.41210244     1.09000
C407        C  0.49724975  0.68846953  0.40199330     1.09200
C408        C  0.50767151  0.80797309  0.40540413     1.09100
O409        O  0.47396184  0.79782627  0.36666577    -0.80500
O410        O  0.53056137  0.70101198  0.36291002    -0.80600
O411        O  0.46128572  0.74656648  0.34112684    -0.80600
O412        O  0.54239374  0.75379512  0.34023190    -0.80500
O413        O  0.56149111  0.73767613  0.37210898    -0.80600
O414        O  0.44323981  0.76073181  0.37439521    -0.80500
O415        O  0.49910703  0.78348900  0.33721666    -0.80500
O416        O  0.50436537  0.71725644  0.33529591    -0.80600
Co417      Co  0.47436402  0.77111415  0.39331443     1.51500
Co418      Co  0.53108266  0.72601384  0.39119149     1.51700
Co419      Co  0.47955449  0.72152799  0.36164015     1.51600
Co420      Co  0.52474166  0.77757000  0.36264163     1.51500
O421        O  0.50246833  0.74904190  0.37727809    -1.42500
C422        C  0.48109626  0.79735574  0.34393572     1.09100
C423        C  0.52178279  0.70219612  0.34075354     1.09200
C424        C  0.44199099  0.75537939  0.35143937     1.09100
C425        C  0.56204476  0.74472941  0.34961798     1.09100
O426        O  0.58526598  0.96601155  0.74713435    -0.80500
O427        O  0.58574036  0.03568675  0.74868024    -0.80600
O428        O  0.61886712  0.98243655  0.80620528    -0.80600
O429        O  0.62384165  0.01833303  0.69267285    -0.80500
O430        O  0.58727376  0.00097727  0.78878680    -0.80600
O431        O  0.59096075  0.00088259  0.70860650    -0.80600
O432        O  0.61634569  0.05241851  0.72677078    -0.80500
O433        O  0.61323444  0.94858056  0.77210033    -0.80600
C434        C  0.59103418  0.94995153  0.76348669     1.09200
C435        C  0.59357485  0.05217895  0.73366255     1.09000
C436        C  0.59635250  0.98950055  0.80738469     1.09200
C437        C  0.60123095  0.01176046  0.69046386     1.09100
O438        O  0.64042088  0.97759045  0.69869427    -0.80500
O439        O  0.63559050  0.02297902  0.80194323    -0.80600
O440        O  0.66283236  0.96044471  0.75117511    -0.80600
O441        O  0.66339443  0.03962255  0.75164953    -0.80500
O442        O  0.63108473  0.05749094  0.76848475    -0.80600
O443        O  0.63163487  0.94330626  0.73189112    -0.80500
O444        O  0.66848969  0.00084673  0.71790160    -0.80500
O445        O  0.66546510  0.99969715  0.78548122    -0.80600
Co446      Co  0.61216529  0.97457702  0.72380314     1.51500
Co447      Co  0.61015584  0.02661020  0.77458244     1.51700
Co448      Co  0.64000168  0.97503048  0.77611816     1.51600
Co449      Co  0.64257789  0.02553943  0.72476173     1.51500
O450        O  0.62601991  0.00042928  0.74985582    -1.42500
C451        C  0.66283523  0.98532879  0.70117172     1.09100
C452        C  0.65803328  0.01496051  0.80188739     1.09200
C453        C  0.65388051  0.94193139  0.73976413     1.09100
C454        C  0.65391675  0.05828751  0.76240426     1.09100
C455        C  0.51298230  0.99648648  0.97795126     0.01900
C456        C  0.49269534  0.98087350  0.98503051     0.01900
C457        C  0.47794834  0.98703960  0.00605290     0.01900
C458        C  0.48512632  0.00685604  0.02180031     0.01900
C459        C  0.50557358  0.02233315  0.01523683     0.01900
C460        C  0.52014970  0.01671100  0.99365615     0.01900
O461        O  0.46690714  0.25148286  0.08987442    -0.80500
O462        O  0.53401779  0.25327934  0.08604892    -0.80600
O463        O  0.48575199  0.30738563  0.12946733    -0.80600
O464        O  0.52105380  0.19327253  0.12056977    -0.80500
O465        O  0.50066091  0.29196906  0.09525416    -0.80600
O466        O  0.50149387  0.21127903  0.09010647    -0.80600
O467        O  0.55374670  0.22782879  0.11195328    -0.80500
O468        O  0.45174012  0.27366781  0.12127200    -0.80600
C469        C  0.45137101  0.26729991  0.09833764     1.09200
C470        C  0.55083487  0.23723316  0.09020907     1.09000
C471        C  0.49090966  0.31011144  0.10660401     1.09200
C472        C  0.51281288  0.19234522  0.09852378     1.09100
O473        O  0.48131078  0.19805101  0.13948525    -0.80500
O474        O  0.52719191  0.29984628  0.14319968    -0.80600
O475        O  0.46424836  0.24738113  0.16759874    -0.80600
O476        O  0.54522790  0.24836722  0.16291004    -0.80500
O477        O  0.56073171  0.26711574  0.13069368    -0.80600
O478        O  0.44635535  0.23181096  0.13482883    -0.80500
O479        O  0.50668984  0.21407883  0.16780443    -0.80500
O480        O  0.50472276  0.28063915  0.17209535    -0.80600
Co481      Co  0.47666649  0.22537947  0.11380526     1.51500
Co482      Co  0.52807357  0.27590539  0.11399238     1.51700
Co483      Co  0.47889077  0.27465840  0.14709710     1.51600
Co484      Co  0.52952230  0.22350314  0.14088413     1.51500
O485        O  0.50319680  0.24981314  0.12893273    -1.42500
C486        C  0.49116921  0.19758903  0.16123946     1.09100
C487        C  0.52078574  0.29680944  0.16596459     1.09200
C488        C  0.44525564  0.23748767  0.15765780     1.09100
C489        C  0.56324859  0.25951578  0.15285076     1.09100
O490        O  0.19957258  0.13268754  0.47397216    -0.80500
O491        O  0.29868485  0.13911667  0.52955722    -0.80600
O492        O  0.24398849  0.16185508  0.54064407    -0.80600
O493        O  0.25150492  0.16137341  0.46219311    -0.80500
O494        O  0.26162524  0.13095704  0.56004536    -0.80600
O495        O  0.23724445  0.12834831  0.44367216    -0.80600
O496        O  0.28165525  0.16690518  0.50431603    -0.80500
O497        O  0.21321006  0.16289483  0.49838244    -0.80600
C498        C  0.19914274  0.15541492  0.48086153     1.09200
C499        C  0.29658028  0.16153914  0.52185465     1.09000
C500        C  0.25400187  0.15338123  0.56016626     1.09200
C501        C  0.24260733  0.15136498  0.44286943     1.09100
O502        O  0.25463711  0.08390271  0.46889990    -0.80500
O503        O  0.24964474  0.08436317  0.53499236    -0.80600
O504        O  0.19201041  0.11654549  0.51437002    -0.80600
O505        O  0.30855762  0.12267558  0.48952933    -0.80500
O506        O  0.29158704  0.08978758  0.50575367    -0.80600
O507        O  0.21201040  0.08513673  0.49844773    -0.80500
O508        O  0.27807912  0.11372471  0.45272891    -0.80500
O509        O  0.22301981  0.11139972  0.55109204    -0.80600
Co510      Co  0.22787691  0.10788297  0.47399171     1.51500
Co511      Co  0.27343332  0.11114260  0.52993252     1.51700
Co512      Co  0.22085800  0.13816040  0.52427631     1.51600
Co513      Co  0.27719665  0.14085694  0.47911696     1.51500
O514        O  0.24982182  0.12458966  0.50179752    -1.42500
C515        C  0.27114954  0.09094697  0.45370404     1.09100
C516        C  0.23221007  0.08938308  0.54992094     1.09200
C517        C  0.19223421  0.09390656  0.50776854     1.09100
C518        C  0.31025936  0.09997145  0.49572561     1.09100
C519        C  0.76731274  0.77011829  0.25547775     0.01900
C520        C  0.77358757  0.75517290  0.23435861     0.01900
C521        C  0.75801726  0.73466320  0.22772214     0.01900
C522        C  0.73693806  0.72863457  0.24281477     0.01900
C523        C  0.73082498  0.74373166  0.26369643     0.01900
C524        C  0.74696514  0.76324091  0.27093783     0.01900
O525        O  0.61190839  0.55068582  0.27574118    -0.80500
O526        O  0.61551998  0.44850042  0.22789127    -0.80600
O527        O  0.58909717  0.49940977  0.21150382    -0.80600
O528        O  0.58943019  0.49772983  0.29205018    -0.80500
O529        O  0.62188569  0.48337436  0.19401455    -0.80600
O530        O  0.62062158  0.51664450  0.30949526    -0.80600
O531        O  0.58655950  0.46465833  0.25248854    -0.80500
O532        O  0.58382934  0.53261029  0.25143520    -0.80600
C533        C  0.58961432  0.54885096  0.26754144     1.09200
C534        C  0.59324373  0.44889161  0.23631411     1.09000
C535        C  0.59913352  0.48963217  0.19261495     1.09200
C536        C  0.59842581  0.50869081  0.31078194     1.09100
O537        O  0.66684026  0.50187309  0.28561657    -0.80500
O538        O  0.66691647  0.50059420  0.21773429    -0.80600
O539        O  0.62841588  0.55768063  0.23492152    -0.80600
O540        O  0.63278187  0.44243915  0.26881342    -0.80500
O541        O  0.66409103  0.46046090  0.25058971    -0.80600
O542        O  0.66101915  0.54149820  0.25269896    -0.80500
O543        O  0.63928148  0.47663389  0.30307139    -0.80500
O544        O  0.63757674  0.52436025  0.20082252    -0.80600
Co545      Co  0.63991677  0.52542406  0.27824809     1.51500
Co546      Co  0.64169276  0.47545995  0.22526541     1.51700
Co547      Co  0.61006872  0.52579502  0.22688854     1.51600
Co548      Co  0.61221730  0.47304854  0.27687731     1.51500
O549        O  0.62602101  0.49992611  0.25182680    -1.42500
C550        C  0.66135685  0.48543452  0.30153835     1.09100
C551        C  0.66019555  0.51673439  0.20191656     1.09200
C552        C  0.65084189  0.55981900  0.24193832     1.09100
C553        C  0.65522608  0.44160791  0.26152634     1.09100
C554        C  0.73068473  0.25649215  0.23740090     0.01900
C555        C  0.74526223  0.23575623  0.22983302     0.01900
C556        C  0.76575981  0.22791866  0.24445744     0.01900
C557        C  0.77276625  0.24178694  0.26573677     0.01900
C558        C  0.75780062  0.26214439  0.27371743     0.01900
C559        C  0.73759003  0.27059958  0.25871534     0.01900
C560        C  0.77015829  0.74444009  0.73378886     0.01900
C561        C  0.76351898  0.72890254  0.75405612     0.01900
C562        C  0.74212335  0.73445757  0.76869862     0.01900
C563        C  0.72547801  0.75364744  0.76093258     0.01900
C564        C  0.73192898  0.76909759  0.74035282     0.01900
C565        C  0.75369985  0.76368585  0.72621917     0.01900
O566        O  0.16530953  0.99552004  0.78306248    -0.80500
O567        O  0.16784878  0.00215129  0.71617317    -0.80600
O568        O  0.12772945  0.94250749  0.76050390    -0.80600
O569        O  0.13564970  0.05952865  0.73729762    -0.80500
O570        O  0.16120585  0.95956307  0.74536938    -0.80600
O571        O  0.16560991  0.03812566  0.75410864    -0.80600
O572        O  0.14084926  0.02897828  0.70022703    -0.80500
O573        O  0.13474615  0.97246809  0.79813430    -0.80600
C574        C  0.15761939  0.97917481  0.79807531     1.09200
C575        C  0.16288237  0.01993511  0.70150833     1.09000
C576        C  0.15064305  0.94072970  0.75479489     1.09200
C577        C  0.15797345  0.05847777  0.74513144     1.09100
O578        O  0.11745420  0.05121452  0.77658742    -0.80500
O579        O  0.11277612  0.95298939  0.71996639    -0.80600
O580        O  0.08753073  0.99940402  0.78697265    -0.80600
O581        O  0.09038258  0.00819376  0.70865764    -0.80500
O582        O  0.12186676  0.99035781  0.69026210    -0.80600
O583        O  0.12009496  0.01334222  0.80678726    -0.80500
O584        O  0.08791269  0.03840570  0.75107997    -0.80500
O585        O  0.08375209  0.96936983  0.74426578    -0.80600
Co586      Co  0.14183082  0.02260624  0.77741641     1.51500
Co587      Co  0.14072820  0.97823591  0.72069627     1.51700
Co588      Co  0.10884019  0.97375200  0.77053687     1.51600
Co589      Co  0.11362569  0.03094912  0.72620311     1.51500
O590        O  0.12610826  0.00136729  0.74869324    -1.42500
C591        C  0.09512196  0.05257056  0.76853327     1.09100
C592        C  0.09009210  0.95441125  0.72712116     1.09200
C593        C  0.09697816  0.00841593  0.80657395     1.09100
C594        C  0.09947876  0.99804979  0.68946704     1.09100
O595        O  0.75298303  0.41348334  0.53298239    -0.80500
O596        O  0.74971598  0.41008641  0.46371558    -0.80600
O597        O  0.80861852  0.37760266  0.51552114    -0.80600
O598        O  0.69432923  0.37686397  0.48394872    -0.80500
O599        O  0.79086738  0.40877448  0.49644105    -0.80600
O600        O  0.71214046  0.40950764  0.50016979    -0.80600
O601        O  0.72659043  0.37967584  0.44865588    -0.80500
O602        O  0.77607530  0.38438550  0.55079351    -0.80600
C603        C  0.76968030  0.40714736  0.54846535     1.09200
C604        C  0.73320544  0.40248127  0.44857163     1.09000
C605        C  0.80979788  0.39975847  0.50730360     1.09200
C606        C  0.69338718  0.39980137  0.48957037     1.09100
O607        O  0.69994765  0.36265087  0.52529044    -0.80500
O608        O  0.80237357  0.35920344  0.47579128    -0.80600
O609        O  0.75288796  0.33590709  0.54108835    -0.80600
O610        O  0.74964621  0.33195916  0.46340835    -0.80500
O611        O  0.76684359  0.36295848  0.44366070    -0.80600
O612        O  0.73527014  0.36856868  0.55775107    -0.80500
O613        O  0.71660894  0.33179135  0.50390300    -0.80500
O614        O  0.78581667  0.33103873  0.50087883    -0.80600
Co615      Co  0.72731434  0.38824861  0.52647101     1.51500
Co616      Co  0.77530768  0.38528076  0.47258445     1.51700
Co617      Co  0.77820967  0.35736656  0.52495219     1.51600
Co618      Co  0.72446239  0.35528214  0.47713089     1.51500
O619        O  0.75133086  0.37161743  0.50031414    -1.42500
C620        C  0.70004663  0.33982350  0.51864933     1.09100
C621        C  0.80146705  0.33701495  0.48428798     1.09200
C622        C  0.74150915  0.34576444  0.55924799     1.09100
C623        C  0.76009579  0.34032146  0.44406089     1.09100
C624        C  0.97792936  0.48697317  0.50222303     0.01900
C625        C  0.98564410  0.50704512  0.51768730     0.01900
C626        C  0.00657954  0.52183864  0.51086583     0.01900
C627        C  0.02158919  0.51450326  0.49026099     0.01900
C628        C  0.01428527  0.49392033  0.47510955     0.01900
C629        C  0.99306715  0.47943144  0.48187014     0.01900
O630        O  0.79703153  0.63379634  0.02603926    -0.80500
O631        O  0.69798615  0.63698873  0.97100131    -0.80600
O632        O  0.75182674  0.66261683  0.95937076    -0.80600
O633        O  0.74422219  0.66109668  0.03809314    -0.80500
O634        O  0.73507112  0.63103931  0.94010895    -0.80600
O635        O  0.76050302  0.62889871  0.05683410    -0.80600
O636        O  0.71439192  0.66515292  0.99605913    -0.80500
O637        O  0.78211532  0.66411263  0.00251004    -0.80600
C638        C  0.79715059  0.65654525  0.01910473     1.09200
C639        C  0.69903267  0.65930879  0.97919561     1.09000
C640        C  0.74223000  0.65353703  0.93981957     1.09200
C641        C  0.75439713  0.65177253  0.05717763     1.09100
O642        O  0.74356347  0.58336309  0.03245867    -0.80500
O643        O  0.74993484  0.58459396  0.96258988    -0.80600
O644        O  0.80514111  0.61813482  0.98585309    -0.80600
O645        O  0.68933956  0.61957525  0.01074219    -0.80500
O646        O  0.70775149  0.58771539  0.99367819    -0.80600
O647        O  0.78567469  0.58611186  0.00150989    -0.80500
O648        O  0.71982105  0.61312729  0.04807839    -0.80500
O649        O  0.77511383  0.61402763  0.94852711    -0.80600
Co650      Co  0.76963450  0.60825035  0.02641864     1.51500
Co651      Co  0.72462947  0.61019747  0.96966672     1.51700
Co652      Co  0.77575167  0.63958254  0.97610690     1.51600
Co653      Co  0.71962164  0.63947742  0.02123538     1.51500
O654        O  0.74741569  0.62425733  0.99832372    -1.42500
C655        C  0.72676058  0.59037642  0.04748583     1.09100
C656        C  0.76728880  0.59158259  0.94813663     1.09200
C657        C  0.80518939  0.59531790  0.99204468     1.09100
C658        C  0.68858735  0.59696795  0.00384331     1.09100
C659        C  0.48144581  0.50439383  0.98292692     0.01900
C660        C  0.50194255  0.52001516  0.98899784     0.01900
C661        C  0.51872067  0.51283252  0.00824778     0.01900
C662        C  0.51306230  0.49196297  0.02355892     0.01900
C663        C  0.49207130  0.47680691  0.01787701     0.01900
C664        C  0.47572268  0.48350880  0.99814780     0.01900
O665        O  0.78655426  0.16529507  0.99970098    -0.80500
O666        O  0.71686052  0.16889001  0.00257005    -0.80600
O667        O  0.76565296  0.13105906  0.94398740    -0.80600
O668        O  0.73493146  0.13290209  0.05841178    -0.80500
O669        O  0.74931957  0.16412065  0.96119489    -0.80600
O670        O  0.75356074  0.16404238  0.04030905    -0.80600
O671        O  0.69960860  0.13996830  0.02614887    -0.80500
O672        O  0.80140432  0.13493704  0.97611961    -0.80600
C673        C  0.80127088  0.15774421  0.98280052     1.09200
C674        C  0.70132429  0.16264005  0.01921270     1.09000
C675        C  0.75939830  0.15378585  0.94246882     1.09200
C676        C  0.74269824  0.15521059  0.05921226     1.09100
O677        O  0.77427766  0.11417692  0.05212454    -0.80500
O678        O  0.72428923  0.11719335  0.95055599    -0.80600
O679        O  0.78794784  0.08737100  0.99923537    -0.80600
O680        O  0.70958239  0.09127911  0.00275887    -0.80500
O681        O  0.69183150  0.12354748  0.98584122    -0.80600
O682        O  0.80719601  0.11853325  0.01688482    -0.80500
O683        O  0.74965382  0.08625716  0.03461429    -0.80500
O684        O  0.74647877  0.08632551  0.96638516    -0.80600
Co685      Co  0.77775399  0.14048452  0.02513901     1.51500
Co686      Co  0.72327544  0.14316413  0.97730022     1.51700
Co687      Co  0.77320399  0.11023321  0.97418386     1.51600
Co688      Co  0.72552380  0.11271382  0.02790784     1.51500
O689        O  0.75000631  0.12681964  0.00105537    -1.42500
C690        C  0.76544859  0.09210005  0.05098070     1.09100
C691        C  0.73054787  0.09430593  0.95074582     1.09200
C692        C  0.80705566  0.09587668  0.01022159     1.09100
C693        C  0.69062621  0.10088064  0.99265333     1.09100
O694        O  0.36531457  0.52401079  0.70021279    -0.80500
O695        O  0.36363650  0.47664529  0.80359266    -0.80600
O696        O  0.33681762  0.46260632  0.75119212    -0.80600
O697        O  0.34001864  0.54028648  0.75269815    -0.80500
O698        O  0.36757237  0.44337365  0.76947630    -0.80600
O699        O  0.37238517  0.55721341  0.73512540    -0.80600
O700        O  0.33471496  0.50097520  0.78726023    -0.80500
O701        O  0.33534373  0.50164608  0.71726118    -0.80600
C702        C  0.34260238  0.51688423  0.70083002     1.09200
C703        C  0.34120612  0.48457796  0.80309797     1.09000
C704        C  0.34507949  0.44351735  0.76212845     1.09200
C705        C  0.34971794  0.55876936  0.74184443     1.09100
O706        O  0.41755768  0.53232304  0.75205853    -0.80500
O707        O  0.41465576  0.46438831  0.75194403    -0.80600
O708        O  0.38025742  0.48227333  0.69491085    -0.80600
O709        O  0.38115070  0.51660682  0.80929384    -0.80500
O710        O  0.41269288  0.49769296  0.79213989    -0.80600
O711        O  0.41297627  0.49920378  0.71175693    -0.80500
O712        O  0.38914265  0.55053423  0.77582677    -0.80500
O713        O  0.38482750  0.44767320  0.72900326    -0.80600
Co714      Co  0.39172308  0.52561454  0.72709435     1.51500
Co715      Co  0.38963165  0.47312577  0.77696133     1.51700
Co716      Co  0.35967052  0.47571782  0.72568444     1.51600
Co717      Co  0.36134920  0.52499056  0.77854008     1.51500
O718        O  0.37560626  0.49988209  0.75205155    -1.42500
C719        C  0.41178580  0.54799149  0.76872251     1.09100
C720        C  0.40724954  0.44773374  0.73705642     1.09200
C721        C  0.40297573  0.48850407  0.69325211     1.09100
C722        C  0.40335484  0.50862312  0.81082363     1.09100
O723        O  0.77522110  0.88979967  0.44856556    -0.80500
O724        O  0.72387085  0.88969997  0.54944441    -0.80600
O725        O  0.70879957  0.91246800  0.49685389    -0.80600
O726        O  0.78852952  0.91528785  0.50055226    -0.80500
O727        O  0.69187771  0.87999951  0.51392332    -0.80600
O728        O  0.80784060  0.88366146  0.48427138    -0.80600
O729        O  0.74773269  0.91872115  0.53252810    -0.80500
O730        O  0.74903898  0.91755649  0.46444423    -0.80600
C731        C  0.76582528  0.91175598  0.44891276     1.09200
C732        C  0.73168487  0.91218009  0.54852120     1.09000
C733        C  0.69018190  0.90252102  0.50717042     1.09200
C734        C  0.80786691  0.90640454  0.49050266     1.09100
O735        O  0.78537598  0.83773021  0.50067950    -0.80500
O736        O  0.71824660  0.83522474  0.49972884    -0.80600
O737        O  0.73542763  0.87114891  0.44120784    -0.80600
O738        O  0.76497768  0.87454754  0.55758016    -0.80500
O739        O  0.74945616  0.84152801  0.54032793    -0.80600
O740        O  0.75357024  0.83987050  0.45932963    -0.80500
O741        O  0.80062177  0.86733441  0.52503845    -0.80500
O742        O  0.70058062  0.86240067  0.47413196    -0.80600
Co743      Co  0.77776201  0.86294777  0.47535040     1.51500
Co744      Co  0.72353863  0.86193928  0.52372334     1.51700
Co745      Co  0.72549274  0.89076142  0.47189849     1.51600
Co746      Co  0.77343710  0.89359151  0.52617428     1.51500
O747        O  0.75008681  0.87729093  0.49927197    -1.42500
C748        C  0.80009901  0.84462664  0.51782952     1.09100
C749        C  0.70253494  0.84032989  0.48293994     1.09200
C750        C  0.74341075  0.84894439  0.44012515     1.09100
C751        C  0.75871590  0.85188986  0.55926252     1.09100
O752        O  0.08248072  0.53183903  0.24619352    -0.80500
O753        O  0.08614915  0.46243744  0.24445342    -0.80600
O754        O  0.12047988  0.51715849  0.18996211    -0.80600
O755        O  0.11766366  0.48018604  0.30297428    -0.80500
O756        O  0.08907593  0.49761256  0.20638223    -0.80600
O757        O  0.08569686  0.49730060  0.28487151    -0.80600
O758        O  0.11537559  0.44632998  0.26848908    -0.80500
O759        O  0.11157409  0.55072602  0.22403538    -0.80600
C760        C  0.08885365  0.54835333  0.23070008     1.09200
C761        C  0.09313167  0.44608851  0.25998006     1.09000
C762        C  0.09833233  0.50909821  0.18812785     1.09200
C763        C  0.09473376  0.48616888  0.30357246     1.09100
O764        O  0.13247156  0.52176073  0.29967149    -0.80500
O765        O  0.13965604  0.47753567  0.19520562    -0.80600
O766        O  0.15985258  0.53987080  0.24837280    -0.80600
O767        O  0.16378820  0.46125190  0.24814157    -0.80500
O768        O  0.13363135  0.44278890  0.22826926    -0.80600
O769        O  0.12703236  0.55624128  0.26551724    -0.80500
O770        O  0.16361755  0.50057803  0.28286812    -0.80500
O771        O  0.16652071  0.50212840  0.21436163    -0.80600
Co772      Co  0.10738396  0.52428199  0.27175644     1.51500
Co773      Co  0.11208858  0.47268818  0.22079412     1.51700
Co774      Co  0.13934747  0.52524510  0.22169371     1.51600
Co775      Co  0.13992095  0.47439972  0.27308138     1.51500
O776        O  0.12461018  0.49911523  0.24686670    -1.42500
C777        C  0.15533869  0.51519694  0.29944176     1.09100
C778        C  0.16159823  0.48655345  0.19749353     1.09200
C779        C  0.14982481  0.55810389  0.25927830     1.09100
C780        C  0.15580777  0.44242622  0.23637567     1.09100
C781        C  0.51714667  0.50667663  0.48203767     0.01900
C782        C  0.49561785  0.52071023  0.48850972     0.01900
C783        C  0.48038735  0.51308388  0.50881631     0.01900
C784        C  0.48838931  0.49316733  0.52448737     0.01900
C785        C  0.50993321  0.47901212  0.51796849     0.01900
C786        C  0.52500466  0.48670717  0.49757795     0.01900
C787        C  0.98212814  0.49358825  0.97801029     0.01900
C788        C  0.00261341  0.47819081  0.98463848     0.01900
C789        C  0.01762540  0.48414267  0.00559324     0.01900
C790        C  0.01035877  0.50400732  0.02151321     0.01900
C791        C  0.99022527  0.51986555  0.01467125     0.01900
C792        C  0.97533256  0.51382020  0.99364084     0.01900
C793        C  0.02226993  0.50657445  0.04655422    -0.20300
C794        C  0.01572770  0.49037311  0.06623985     0.36000
C795        C  0.02729446  0.49311503  0.08964746    -0.26200
C796        C  0.04479506  0.51210099  0.09402402     0.02400
C797        C  0.05046759  0.52901012  0.07450918     0.27200
C798        C  0.03960485  0.52557606  0.05098540    -0.25400
N799        N  0.99697813  0.47155897  0.06256141    -0.82800
H800        H  0.02289852  0.48015210  0.10450358     0.13000
C801        C  0.05814748  0.51256569  0.11838289     0.02400
N802        N  0.06682678  0.55001186  0.07783790    -0.81300
H803        H  0.04458518  0.53815849  0.03615876     0.17800
C804        C  0.08410759  0.50927372  0.11859197    -0.26200
C805        C  0.09755739  0.50841991  0.14105257     0.35900
C806        C  0.08473602  0.51072307  0.16401441    -0.20200
C807        C  0.05866997  0.51379194  0.16382121    -0.25400
C808        C  0.04528249  0.51507048  0.14120668     0.27200
H809        H  0.09387003  0.50693137  0.10105134     0.13000
N810        N  0.12408078  0.50430214  0.14055532    -0.82700
H811        H  0.04880191  0.51558309  0.18135888     0.17800
N812        N  0.01872828  0.51899669  0.14127213    -0.81300
H813        H  0.13070098  0.50386314  0.12222858     0.33500
H814        H  0.12740421  0.48657647  0.14796236     0.38000
H815        H  0.01209334  0.52048998  0.15953838     0.33400
H816        H  0.01526163  0.53616308  0.13267657     0.30100
H817        H  0.05653789  0.56610202  0.07376611     0.33400
H818        H  0.07236272  0.55197172  0.09637364     0.30100
H819        H  0.00391895  0.45858986  0.04980994     0.38000
H820        H  0.99379557  0.46176345  0.07910597     0.33500
C821        C  0.41627951  0.48570393  0.66878815    -0.20300
C822        C  0.40283434  0.48487358  0.64591078     0.36000
C823        C  0.41582229  0.48324756  0.62314164    -0.26200
C824        C  0.44194206  0.48290086  0.62232508     0.02400
C825        C  0.45545084  0.48324891  0.64496328     0.27200
C826        C  0.44252611  0.48474547  0.66792389    -0.25400
N827        N  0.37602700  0.48670848  0.64565090    -0.82800
H828        H  0.40549146  0.48329788  0.60575837     0.13000
C829        C  0.45466499  0.48429587  0.59753485     0.02400
N830        N  0.48225884  0.48216761  0.64449534    -0.81300
H831        H  0.45299200  0.48521213  0.68520615     0.17800
C832        C  0.46816890  0.50583636  0.59146971    -0.26200
C833        C  0.47909722  0.50885803  0.56780553     0.35900
C834        C  0.47639563  0.49001389  0.54956529    -0.20200
C835        C  0.46297471  0.46834492  0.55561306    -0.25400
C836        C  0.45214100  0.46528005  0.57944367     0.27200
H837        H  0.46994503  0.52051546  0.60523537     0.13000
N838        N  0.49311393  0.53100542  0.56219985    -0.82700
H839        H  0.46102142  0.45380408  0.54173602     0.17800
N840        N  0.43863927  0.44293708  0.58540616    -0.81300
H841        H  0.51166361  0.52567139  0.55921701     0.33500
H842        H  0.49317534  0.54316070  0.57743279     0.38000
H843        H  0.43846965  0.43079913  0.57014858     0.33400
H844        H  0.44838405  0.43382237  0.59964620     0.30100
H845        H  0.48943686  0.48249604  0.66261933     0.33400
H846        H  0.48734444  0.46495986  0.63682487     0.30100
H847        H  0.37132319  0.50468731  0.65155667     0.38000
H848        H  0.36908411  0.48499026  0.62750578     0.33500
C849        C  0.46931137  0.50652482  0.95796132    -0.20300
C850        C  0.45250362  0.52575603  0.95168936     0.36000
C851        C  0.44265578  0.52703675  0.92738848    -0.26200
C852        C  0.44914501  0.50925332  0.90919716     0.02400
C853        C  0.46587310  0.48989515  0.91557333     0.27200
C854        C  0.47583149  0.48883750  0.93979817    -0.25400
N855        N  0.44534741  0.54393125  0.96987664    -0.82800
H856        H  0.42981632  0.54196568  0.92270660     0.13000
C857        C  0.43752781  0.51033109  0.88391580     0.02400
N858        N  0.47242147  0.47118202  0.89751611    -0.81300
H859        H  0.48883209  0.47408432  0.94462650     0.17800
C860        C  0.45270208  0.51097639  0.86250631    -0.26200
C861        C  0.44230107  0.51013477  0.83832722     0.35900
C862        C  0.41609321  0.50946225  0.83551095    -0.20200
C863        C  0.40100780  0.50944993  0.85701636    -0.25400
C864        C  0.41138082  0.50947963  0.88106119     0.27200
H865        H  0.47279578  0.51176523  0.86471832     0.13000
N866        N  0.45823620  0.51053650  0.81679501    -0.82700
H867        H  0.38087648  0.50862662  0.85510251     0.17800
N868        N  0.39545753  0.50801893  0.90259795    -0.81300
H869        H  0.47689018  0.51266183  0.82213674     0.33500
H870        H  0.45704596  0.49304671  0.80828235     0.38000
H871        H  0.37666080  0.50757276  0.89730217     0.33400
H872        H  0.39915579  0.49107006  0.91151193     0.30100
H873        H  0.48506355  0.45837800  0.90510498     0.33400
H874        H  0.45621505  0.46120954  0.89324284     0.30100
H875        H  0.42592448  0.54332183  0.97172084     0.38000
H876        H  0.45006965  0.56154549  0.96299912     0.33500
C877        C  0.82912208  0.58130128  0.99098539    -0.20300
C878        C  0.83069395  0.55572077  0.98489458     0.36000
C879        C  0.85439977  0.54419933  0.98343669    -0.26200
C880        C  0.87637547  0.55761524  0.98855074     0.02400
C881        C  0.87467441  0.58299929  0.99508800     0.27200
C882        C  0.85121401  0.59461603  0.99571557    -0.25400
N883        N  0.80848477  0.54186515  0.97914356    -0.82800
H884        H  0.85579008  0.52467818  0.97839848     0.13000
C885        C  0.90111772  0.54495092  0.98812961     0.02400
N886        N  0.89679659  0.59677951  0.00150300    -0.81300
H887        H  0.85015978  0.61422454  0.00039515     0.17800
C888        C  0.92007177  0.55382541  0.97234207    -0.26200
C889        C  0.94455515  0.54423490  0.97372742     0.35900
C890        C  0.95004897  0.52521059  0.99105364    -0.20200
C891        C  0.93092863  0.51600613  0.00636428    -0.25400
C892        C  0.90661550  0.52566102  0.00502800     0.27200
H893        H  0.91584525  0.56872450  0.95935053     0.13000
N894        N  0.96379945  0.55395984  0.95790349    -0.82700
H895        H  0.93499865  0.50128611  0.01962088     0.17800
N896        N  0.88770781  0.51638186  0.02143007    -0.81300
H897        H  0.95652263  0.56739151  0.94576212     0.33500
H898        H  0.97659437  0.56312362  0.96930641     0.38000
H899        H  0.88588464  0.49722811  0.01828761     0.33400
H900        H  0.89382105  0.51893234  0.03976552     0.30100
H901        H  0.89233393  0.61526037  0.00592045     0.33400
H902        H  0.90425567  0.58884495  0.01768693     0.30100
H903        H  0.79822349  0.54008770  0.99560894     0.38000
H904        H  0.81306164  0.52374804  0.97355405     0.33500
C905        C  0.54395446  0.52474262  0.00928434    -0.20300
C906        C  0.55151349  0.54072154  0.02870764     0.36000
C907        C  0.57558897  0.55123993  0.02835098    -0.26200
C908        C  0.59232566  0.54632357  0.00874769     0.02400
C909        C  0.58474150  0.53037774  0.98923687     0.27200
C910        C  0.56072210  0.51973740  0.98976760    -0.25400
N911        N  0.53472761  0.54671605  0.04856308    -0.82800
H912        H  0.58116938  0.56356710  0.04335069     0.13000
C913        C  0.61711204  0.55909851  0.00811834     0.02400
N914        N  0.60128426  0.52541712  0.96872981    -0.81300
H915        H  0.55491149  0.50751203  0.97476365     0.17800
C916        C  0.63932771  0.54506461  0.00783211    -0.26200
C917        C  0.66284385  0.55665301  0.00645096     0.35900
C918        C  0.66446546  0.58303343  0.00561248    -0.20200
C919        C  0.64211712  0.59694801  0.00620216    -0.25400
C920        C  0.61859340  0.58532579  0.00712057     0.27200
H921        H  0.63837010  0.52489395  0.00862549     0.13000
N922        N  0.68462266  0.54111986  0.00640716    -0.82700
H923        H  0.64291751  0.61711834  0.00530609     0.17800
N924        N  0.59613059  0.60006722  0.00653655    -0.81300
H925        H  0.69416646  0.54373463  0.98963617     0.33500
H926        H  0.69613571  0.54646816  0.02120974     0.38000
H927        H  0.60037267  0.61907500  0.00580160     0.33400
H928        H  0.58668823  0.59584246  0.98999657     0.30100
H929        H  0.59293708  0.51325468  0.95599329     0.33400
H930        H  0.60414454  0.54224003  0.95929548     0.30100
H931        H  0.54328278  0.54164086  0.06534270     0.38000
H932        H  0.53226373  0.56605964  0.04877265     0.33500
C933        C  0.08052056  0.48326666  0.32753971    -0.20300
C934        C  0.05462329  0.48819669  0.33001352     0.36000
C935        C  0.04348864  0.48773743  0.35393780    -0.26200
C936        C  0.05769510  0.48345171  0.37564751     0.02400
C937        C  0.08333178  0.47790988  0.37305858     0.27200
C938        C  0.09414341  0.47715678  0.34919226    -0.25400
N939        N  0.03963308  0.49366452  0.30845776    -0.82800
H940        H  0.02367944  0.49145121  0.35574148     0.13000
C941        C  0.04594976  0.48579835  0.40098525     0.02400
N942        N  0.09861474  0.47395711  0.39476481    -0.81300
H943        H  0.11382270  0.47281369  0.34774198     0.17800
C944        C  0.04928408  0.46681293  0.41885862    -0.26200
C945        C  0.04002536  0.46927538  0.44331716     0.35900
C946        C  0.02615434  0.49060608  0.45000468    -0.20200
C947        C  0.02248968  0.50938711  0.43211137    -0.25400
C948        C  0.03254961  0.50747069  0.40793015     0.27200
H949        H  0.05943328  0.45003594  0.41390517     0.13000
N950        N  0.04499924  0.45019151  0.46130610    -0.82700
H951        H  0.01180146  0.52580502  0.43716698     0.17800
N952        N  0.02959172  0.52770669  0.39058831    -0.81300
H953        H  0.06436198  0.44825772  0.46289635     0.33500
H954        H  0.03800355  0.43340390  0.45432329     0.38000
H955        H  0.01921454  0.54218534  0.39855152     0.33400
H956        H  0.04735026  0.53491403  0.38693355     0.30100
H957        H  0.11699527  0.46976501  0.38970815     0.33400
H958        H  0.09920792  0.49074721  0.40466847     0.30100
H959        H  0.04461966  0.51142440  0.30218778     0.38000
H960        H  0.02076137  0.49482462  0.31331344     0.33500
C961        C  0.66943952  0.41387254  0.48625361    -0.20300
C962        C  0.64671358  0.40132393  0.48120155     0.36000
C963        C  0.62400417  0.41438585  0.48170713    -0.26200
C964        C  0.62307977  0.44018713  0.48591522     0.02400
C965        C  0.64588410  0.45315965  0.48933816     0.27200
C966        C  0.66868908  0.43982850  0.48990585    -0.25400
N967        N  0.64631003  0.37509494  0.47609552    -0.82800
H968        H  0.60684611  0.40397720  0.47937872     0.13000
C969        C  0.59808970  0.45286837  0.48788120     0.02400
N970        N  0.64583691  0.47980514  0.49227690    -0.81300
H971        H  0.68594004  0.44977312  0.49334876     0.17800
C972        C  0.59327629  0.46872594  0.50817968    -0.26200
C973        C  0.57006538  0.48050857  0.51129305     0.35900
C974        C  0.55035723  0.47535332  0.49435482    -0.20200
C975        C  0.55494009  0.45934567  0.47419059    -0.25400
C976        C  0.57862951  0.44841176  0.47050492     0.27200
H977        H  0.60772945  0.47206631  0.52191122     0.13000
N978        N  0.56750012  0.49791250  0.53157379    -0.82700
H979        H  0.53996990  0.45556693  0.46113788     0.17800
N980        N  0.58299772  0.43294103  0.44906257    -0.81300
H981        H  0.58040987  0.51221921  0.52868312     0.33500
H982        H  0.55001466  0.50651308  0.53171173     0.38000
H983        H  0.56680655  0.43141933  0.43826894     0.33400
H984        H  0.59632468  0.44185626  0.43798911     0.30100
H985        H  0.66402109  0.48646868  0.49463830     0.33400
H986        H  0.63910363  0.48755603  0.47569187     0.30100
H987        H  0.63481541  0.36646663  0.48925757     0.38000
H988        H  0.63831202  0.37248729  0.45850465     0.33500
C989        C  0.83398481  0.41362934  0.50845338    -0.20300
C990        C  0.85714669  0.40077627  0.51000231     0.36000
C991        C  0.87959756  0.41433415  0.51099809    -0.26200
C992        C  0.87977459  0.44047539  0.51055269     0.02400
C993        C  0.85677353  0.45337626  0.50886855     0.27200
C994        C  0.83417154  0.43984400  0.50769038    -0.25400
N995        N  0.85797034  0.37395236  0.51000867    -0.82800
H996        H  0.89723529  0.40441229  0.51172715     0.13000
C997        C  0.90437205  0.45376790  0.51036122     0.02400
N998        N  0.85646551  0.48017376  0.50846783    -0.81300
H999        H  0.81660130  0.44982410  0.50649011     0.17800
C1000       C  0.91013244  0.46910210  0.48993530    -0.26200
C1001       C  0.93373184  0.48024366  0.48752426     0.35900
C1002       C  0.95253839  0.47549837  0.50529540    -0.20200
C1003       C  0.94679587  0.46053853  0.52598892    -0.25400
C1004       C  0.92284842  0.45016549  0.52911694     0.27200
H1005       H  0.89629299  0.47222203  0.47551388     0.13000
N1006       N  0.93852159  0.49669424  0.46705107    -0.82700
H1007       H  0.96086520  0.45737369  0.54016524     0.17800
N1008       N  0.91794346  0.43657993  0.55171501    -0.81300
H1009       H  0.92566747  0.51136452  0.46794374     0.33500
H1010       H  0.93531302  0.48690113  0.45050701     0.38000
H1011       H  0.92103631  0.44877749  0.56662989     0.33400
H1012       H  0.89922999  0.43146874  0.55305328     0.30100
H1013       H  0.83815356  0.48683127  0.50712756     0.33400
H1014       H  0.86346530  0.48638683  0.52557499     0.30100
H1015       H  0.85192254  0.36790555  0.49248692     0.38000
H1016       H  0.87629663  0.36751060  0.51202550     0.33500
C1017       C  0.75716107  0.77578008  0.70136765    -0.20300
C1018       C  0.74374674  0.76690777  0.68058050     0.36000
C1019       C  0.74596488  0.77912671  0.65749676    -0.26200
C1020       C  0.76217200  0.79946602  0.65437719     0.02400
C1021       C  0.77649860  0.80762201  0.67500900     0.27200
C1022       C  0.77348553  0.79598567  0.69837956    -0.25400
N1023       N  0.72767180  0.74561641  0.68313551    -0.82800
H1024       H  0.73471816  0.77292056  0.64190514     0.13000
C1025       C  0.76280770  0.81274697  0.62982065     0.02400
N1026       N  0.79409500  0.82762120  0.67212379    -0.81300
H1027       H  0.78381832  0.80278716  0.71430024     0.17800
C1028       C  0.75893628  0.83863853  0.62919501    -0.26200
C1029       C  0.75770904  0.85177177  0.60651976     0.35900
C1030       C  0.76020343  0.83870544  0.58368019    -0.20200
C1031       C  0.76399989  0.81279289  0.58426662    -0.25400
C1032       C  0.76574895  0.79975860  0.60704553     0.27200
H1033       H  0.75610893  0.84861110  0.64653478     0.13000
N1034       N  0.75314923  0.87822124  0.60669388    -0.82700
H1035       H  0.76615715  0.80275840  0.56686833     0.17800
N1036       N  0.77072458  0.77340731  0.60713965    -0.81300
H1037       H  0.75248356  0.88503676  0.62494842     0.33500
H1038       H  0.73541421  0.88119378  0.59910022     0.38000
H1039       H  0.77236376  0.76665696  0.58893120     0.33400
H1040       H  0.78807260  0.77068780  0.61569236     0.30100
H1041       H  0.80308434  0.83135676  0.68902396     0.33400
H1042       H  0.80788945  0.82156050  0.65972872     0.30100
H1043       H  0.73890897  0.73023237  0.68743784     0.38000
H1044       H  0.71889977  0.74156261  0.66620332     0.33500
C1045       C  0.74026755  0.72329240  0.79436482    -0.20300
C1046       C  0.75897204  0.72858971  0.81222275     0.36000
C1047       C  0.75819758  0.71719857  0.83583103    -0.26200
C1048       C  0.73872479  0.70114642  0.84244667     0.02400
C1049       C  0.71942217  0.69648307  0.82508670     0.27200
C1050       C  0.72053522  0.70738089  0.80110264    -0.25400
N1051       N  0.77879398  0.74559869  0.80622073    -0.82800
H1052       H  0.77288098  0.72087625  0.84923708     0.13000
C1053       C  0.73941427  0.68899891  0.86745457     0.02400
N1054       N  0.69857752  0.68112111  0.83201777    -0.81300
H1055       H  0.70611693  0.70321050  0.78765841     0.17800
C1056       C  0.73095782  0.70202442  0.88859974    -0.26200
C1057       C  0.73261301  0.69146103  0.91272347     0.35900
C1058       C  0.74219636  0.66709154  0.91557766    -0.20200
C1059       C  0.75103457  0.65434427  0.89440246    -0.25400
C1060       C  0.75021996  0.66520563  0.87051934     0.27200
H1061       H  0.72322200  0.72056169  0.88625194     0.13000
N1062       N  0.72373136  0.70496957  0.93407971    -0.82700
H1063       H  0.75890500  0.63582279  0.89658291     0.17800
N1064       N  0.76108140  0.65252431  0.84951640    -0.81300
H1065       H  0.71635899  0.72221524  0.92867878     0.33500
H1066       H  0.73913184  0.70879160  0.94542073     0.38000
H1067       H  0.76903695  0.63560739  0.85508592     0.33400
H1068       H  0.74675727  0.64810532  0.83706048     0.30100
H1069       H  0.68571034  0.68004975  0.81739646     0.33400
H1070       H  0.70517223  0.66301114  0.83498448     0.30100
H1071       H  0.77079999  0.76318696  0.80343604     0.38000
H1072       H  0.79120412  0.74732624  0.82116788     0.33500
C1073       C  0.74207597  0.16882138  0.08334586    -0.20300
C1074       C  0.73434608  0.19389605  0.08557041     0.36000
C1075       C  0.73327148  0.20501755  0.10943796    -0.26200
C1076       C  0.74035677  0.19175482  0.13099093     0.02400
C1077       C  0.74868925  0.16691221  0.12856204     0.27200
C1078       C  0.74919360  0.15573602  0.10489678    -0.25400
N1079       N  0.72679628  0.20765250  0.06384540    -0.82800
H1080       H  0.72690979  0.22412087  0.11127947     0.13000
C1081       C  0.73999965  0.20417402  0.15591769     0.02400
N1082       N  0.75706144  0.15325059  0.15009734    -0.81300
H1083       H  0.75590225  0.13680788  0.10317355     0.17800
C1084       C  0.72656455  0.19338656  0.17571408    -0.26200
C1085       C  0.72758371  0.20349990  0.19990162     0.35900
C1086       C  0.74190320  0.22499843  0.20440635    -0.20200
C1087       C  0.75476146  0.23615111  0.18457069    -0.25400
C1088       C  0.75420277  0.22585997  0.16046189     0.27200
H1089       H  0.71558642  0.17674578  0.17245531     0.13000
N1090       N  0.71438541  0.19169485  0.21984622    -0.82700
H1091       H  0.76598589  0.25255590  0.18815390     0.17800
N1092       N  0.76865253  0.23688956  0.14078033    -0.81300
H1093       H  0.72077884  0.17331192  0.22125445     0.33500
H1094       H  0.69547627  0.19109918  0.21503139     0.38000
H1095       H  0.77797477  0.25275722  0.14717704     0.33400
H1096       H  0.78244004  0.22402836  0.13566538     0.30100
H1097       H  0.76263622  0.13523672  0.14513278     0.33400
H1098       H  0.77294993  0.16221674  0.15702414     0.30100
H1099       H  0.74260411  0.21021592  0.05273799     0.38000
H1100       H  0.72058337  0.22546300  0.06884115     0.33500
C1101       C  0.76027749  0.27154767  0.29975593    -0.20300
C1102       C  0.74146898  0.26623019  0.31735319     0.36000
C1103       C  0.74359001  0.27511637  0.34184824    -0.26200
C1104       C  0.76435456  0.28913073  0.34921062     0.02400
C1105       C  0.78373325  0.29360246  0.33189436     0.27200
C1106       C  0.78143489  0.28497932  0.30734223    -0.25400
N1107       N  0.72009882  0.25182562  0.31029956    -0.82800
H1108       H  0.72861614  0.27167342  0.35498058     0.13000
C1109       C  0.76384783  0.30164296  0.37381929     0.02400
N1110       N  0.80592676  0.30677424  0.33882817    -0.81300
H1111       H  0.79606182  0.28913003  0.29408353     0.17800
C1112       C  0.76769095  0.28811014  0.39594803    -0.26200
C1113       C  0.76620039  0.29996778  0.41945850     0.35900
C1114       C  0.76122976  0.32585318  0.42053781    -0.20200
C1115       C  0.75713162  0.33903252  0.39826019    -0.25400
C1116       C  0.75800113  0.32712821  0.37513301     0.27200
H1117       H  0.77173168  0.26833411  0.39483404     0.13000
N1118       N  0.77042544  0.28604192  0.44195998    -0.82700
H1119       H  0.75267938  0.35876235  0.39877320     0.17800
N1120       N  0.75241596  0.34089005  0.35290444    -0.81300
H1121       H  0.77504831  0.26756459  0.43776805     0.33500
H1122       H  0.75353784  0.28540332  0.45170113     0.38000
H1123       H  0.73436901  0.34817044  0.35459551     0.33400
H1124       H  0.76484645  0.35585738  0.35175162     0.30100
H1125       H  0.80103628  0.32468739  0.34469317     0.33400
H1126       H  0.81415896  0.29741315  0.35384838     0.30100
H1127       H  0.71936402  0.23609409  0.32179740     0.38000
H1128       H  0.70413232  0.26255038  0.31365229     0.33500
C1129       C  0.72333471  0.41907283  0.42885359    -0.20300
C1130       C  0.70324571  0.41142172  0.41355249     0.36000
C1131       C  0.69726143  0.42515532  0.39230909    -0.26200
C1132       C  0.71058198  0.44666382  0.38608827     0.02400
C1133       C  0.72931497  0.45559294  0.40217947     0.27200
C1134       C  0.73558328  0.44163624  0.42349588    -0.25400
N1135       N  0.68891932  0.38961272  0.41930194    -0.82800
H1136       H  0.68217089  0.41884126  0.38039663     0.13000
C1137       C  0.70377180  0.45954890  0.36280950     0.02400
N1138       N  0.74219218  0.47838064  0.39650315    -0.81300
H1139       H  0.75073275  0.44788436  0.43532275     0.17800
C1140       C  0.69191567  0.48279095  0.36421658    -0.26200
C1141       C  0.67957018  0.49265767  0.34337740     0.35900
C1142       C  0.67927316  0.47892382  0.32099593    -0.20200
C1143       C  0.69291238  0.45678044  0.31897328    -0.25400
C1144       C  0.70532459  0.44692447  0.33977516     0.27200
H1145       H  0.69080902  0.49234614  0.38198475     0.13000
N1146       N  0.66590901  0.51569173  0.34523408    -0.82700
H1147       H  0.69284739  0.44660339  0.30156757     0.17800
N1148       N  0.71839448  0.42353804  0.33806661    -0.81300
H1149       H  0.66754749  0.52319124  0.36315390     0.33500
H1150       H  0.67423799  0.52844333  0.33308478     0.38000
H1151       H  0.71742098  0.41646338  0.31992045     0.33400
H1152       H  0.73724422  0.42702515  0.34172315     0.30100
H1153       H  0.75536361  0.48240464  0.41032556     0.33400
H1154       H  0.75212318  0.47558816  0.37996832     0.30100
H1155       H  0.67023025  0.39493581  0.42131632     0.38000
H1156       H  0.69014963  0.37733581  0.40420543     0.33500
C1157       C  0.67739887  0.52427330  0.18209550    -0.20300
C1158       C  0.68515454  0.50692346  0.16398415     0.36000
C1159       C  0.69588995  0.51544589  0.14172612    -0.26200
C1160       C  0.69895812  0.54105456  0.13752592     0.02400
C1161       C  0.69336890  0.55821613  0.15668368     0.27200
C1162       C  0.68243260  0.54958507  0.17875843    -0.25400
N1163       N  0.68064152  0.48083408  0.16747346    -0.82800
H1164       H  0.70039606  0.50220079  0.12714295     0.13000
C1165       C  0.70522813  0.55013913  0.11231658     0.02400
N1166       N  0.69800306  0.58439196  0.15316868    -0.81300
H1167       H  0.67709149  0.56263347  0.19307584     0.17800
C1168       C  0.68787119  0.56548090  0.10015572    -0.26200
C1169       C  0.69387988  0.57726431  0.07776169     0.35900
C1170       C  0.71757402  0.57344049  0.06704074    -0.20200
C1171       C  0.73415259  0.55629608  0.07803442    -0.25400
C1172       C  0.72827509  0.54474412  0.10084271     0.27200
H1173       H  0.66984654  0.56908759  0.10863055     0.13000
N1174       N  0.67610750  0.59367350  0.06631557    -0.82700
H1175       H  0.75241084  0.55334077  0.06984569     0.17800
N1176       N  0.74596037  0.52854616  0.11290443    -0.81300
H1177       H  0.67173566  0.60779204  0.07903564     0.33500
H1178       H  0.65983357  0.58352378  0.06276974     0.38000
H1179       H  0.76201510  0.52656293  0.10199227     0.33400
H1180       H  0.75152566  0.53716094  0.12947982     0.30100
H1181       H  0.69284880  0.59447920  0.16903946     0.33400
H1182       H  0.71727657  0.58668568  0.15116041     0.30100
H1183       H  0.66943029  0.47457224  0.15279745     0.38000
H1184       H  0.69778065  0.47153027  0.16638443     0.33500
C1185       C  0.58601768  0.48857446  0.16811366    -0.20300
C1186       C  0.59720143  0.49881086  0.14657862     0.36000
C1187       C  0.58490318  0.49756943  0.12341901    -0.26200
C1188       C  0.56155611  0.48593023  0.12098496     0.02400
C1189       C  0.55070662  0.47500958  0.14241759     0.27200
C1190       C  0.56260360  0.47708382  0.16582807    -0.25400
N1191       N  0.62079496  0.51123926  0.14828528    -0.82800
H1192       H  0.59353554  0.50611922  0.10728091     0.13000
C1193       C  0.54868864  0.48603767  0.09608746     0.02400
N1194       N  0.52800720  0.46108664  0.14036647    -0.81300
H1195       H  0.55381456  0.46904033  0.18212454     0.17800
C1196       C  0.56150344  0.47803412  0.07455069    -0.26200
C1197       C  0.55035013  0.47941803  0.05071871     0.35900
C1198       C  0.52585041  0.48871445  0.04820521    -0.20200
C1199       C  0.51297211  0.49632942  0.06967708    -0.25400
C1200       C  0.52428637  0.49565777  0.09331064     0.27200
H1201       H  0.58036394  0.47086839  0.07620887     0.13000
N1202       N  0.56397876  0.47148407  0.02918889    -0.82700
H1203       H  0.49427408  0.50391507  0.06790943     0.17800
N1204       N  0.51136593  0.50606735  0.11423298    -0.81300
H1205       H  0.56911107  0.45284427  0.03179529     0.33500
H1206       H  0.58033725  0.48204788  0.02816514     0.38000
H1207       H  0.50744842  0.52476524  0.11026814     0.33400
H1208       H  0.49436924  0.49669986  0.11613194     0.30100
H1209       H  0.53157005  0.44288224  0.14640633     0.33400
H1210       H  0.51491686  0.46897163  0.15249477     0.30100
H1211       H  0.61841309  0.52963369  0.14226036     0.38000
H1212       H  0.63322050  0.50244803  0.13608116     0.33500
C1213       C  0.52870520  0.51036538  0.45680433    -0.20300
C1214       C  0.55332529  0.51890674  0.45337179     0.36000
C1215       C  0.56374511  0.51951470  0.42925257    -0.26200
C1216       C  0.54965778  0.51283021  0.40808324     0.02400
C1217       C  0.52438588  0.50594469  0.41144445     0.27200
C1218       C  0.51441430  0.50434351  0.43568827    -0.25400
N1219       N  0.56774090  0.52719940  0.47424054    -0.82800
H1220       H  0.58308932  0.52497532  0.42715088     0.13000
C1221       C  0.56160263  0.51247128  0.38270410     0.02400
N1222       N  0.50885960  0.50074266  0.39020507    -0.81300
H1223       H  0.49530317  0.49822602  0.43819526     0.17800
C1224       C  0.55900059  0.49125271  0.36745294    -0.26200
C1225       C  0.57010868  0.48989932  0.34365029     0.35900
C1226       C  0.58461656  0.51006257  0.33487622    -0.20200
C1227       C  0.58762590  0.53107027  0.35023989    -0.25400
C1228       C  0.57586101  0.53275448  0.37370907     0.27200
H1229       H  0.54862304  0.47537633  0.37437275     0.13000
N1230       N  0.56738648  0.46775161  0.32877672    -0.82700
H1231       H  0.59890162  0.54648365  0.34366346     0.17800
N1232       N  0.57811760  0.55513557  0.38827507    -0.81300
H1233       H  0.58501669  0.45948049  0.32716137     0.33500
H1234       H  0.55598415  0.45477115  0.33778642     0.38000
H1235       H  0.58920880  0.56824308  0.37905936     0.33400
H1236       H  0.56029994  0.56299491  0.38980622     0.30100
H1237       H  0.49080086  0.49598446  0.39584034     0.33400
H1238       H  0.50727217  0.51722379  0.37989819     0.30100
H1239       H  0.58427397  0.51680438  0.47472457     0.38000
H1240       H  0.57254966  0.54583125  0.47116317     0.33500
C1241       C  0.72588248  0.29578698  0.26348649    -0.20300
C1242       C  0.74045753  0.31772207  0.26176187     0.36000
C1243       C  0.72895471  0.34133677  0.26365775    -0.26200
C1244       C  0.70300772  0.34379036  0.26649774     0.02400
C1245       C  0.68845658  0.32191694  0.26820912     0.27200
C1246       C  0.70001647  0.29826943  0.26744765    -0.25400
N1247       N  0.76687351  0.31596020  0.25733380    -0.82800
H1248       H  0.74024310  0.35802193  0.26222438     0.13000
C1249       C  0.69148047  0.36932433  0.26610864     0.02400
N1250       N  0.66179762  0.32358151  0.26940563    -0.81300
H1251       H  0.68852435  0.28176335  0.26901334     0.17800
C1252       C  0.69594172  0.38518810  0.24570572    -0.26200
C1253       C  0.68513119  0.40914756  0.24432943     0.35900
C1254       C  0.66946575  0.41772497  0.26367492    -0.20200
C1255       C  0.66537065  0.40203618  0.28429774    -0.25400
C1256       C  0.67646816  0.37821288  0.28582011     0.27200
H1257       H  0.70748958  0.37871654  0.23042812     0.13000
N1258       N  0.68923752  0.42422860  0.22268937    -0.82700
H1259       H  0.65349798  0.40833818  0.29939928     0.17800
N1260       N  0.67280682  0.36329193  0.30764323    -0.81300
H1261       H  0.68303435  0.41430855  0.20709778     0.33500
H1262       H  0.70846615  0.42700007  0.22082900     0.38000
H1263       H  0.67933813  0.37335249  0.32300527     0.33400
H1264       H  0.65361029  0.36059040  0.30994867     0.30100
H1265       H  0.65449413  0.31418713  0.25397081     0.33400
H1266       H  0.65587701  0.31424858  0.28545551     0.30100
H1267       H  0.76941775  0.30807880  0.23969439     0.38000
H1268       H  0.77495161  0.33368930  0.25677684     0.33500
C1269       C  0.74457877  0.77443572  0.29645376    -0.20300
C1270       C  0.75935408  0.76533186  0.31628741     0.36000
C1271       C  0.75776575  0.77660540  0.33997504    -0.26200
C1272       C  0.74138869  0.79660995  0.34448466     0.02400
C1273       C  0.72588928  0.80506533  0.32479839     0.27200
C1274       C  0.72772698  0.79397245  0.30101753    -0.25400
N1275       N  0.77564340  0.74434689  0.31236419    -0.82800
H1276       H  0.76974721  0.77005618  0.35488765     0.13000
C1277       C  0.74161691  0.80940428  0.36938467     0.02400
N1278       N  0.70828598  0.82487638  0.32906942    -0.81300
H1279       H  0.71604633  0.80066987  0.28595280     0.17800
C1280       C  0.74555447  0.83523052  0.37025365    -0.26200
C1281       C  0.74637773  0.84825659  0.39299631     0.35900
C1282       C  0.74313184  0.83528281  0.41579091    -0.20200
C1283       C  0.73979626  0.80928851  0.41504453    -0.25400
C1284       C  0.73872659  0.79626778  0.39210201     0.27200
H1285       H  0.74852822  0.84528775  0.35298938     0.13000
N1286       N  0.75131479  0.87458920  0.39295432    -0.82700
H1287       H  0.73741095  0.79920586  0.43237952     0.17800
N1288       N  0.73434340  0.76983882  0.39177858    -0.81300
H1289       H  0.75240856  0.88145271  0.37474325     0.33500
H1290       H  0.76896558  0.87717468  0.40085107     0.38000
H1291       H  0.73260038  0.76297172  0.40993400     0.33400
H1292       H  0.71718006  0.76685099  0.38297904     0.30100
H1293       H  0.69839336  0.82896094  0.31275693     0.33400
H1294       H  0.69522718  0.81845860  0.34203879     0.30100
H1295       H  0.78953353  0.74976643  0.29984795     0.38000
H1296       H  0.78473148  0.73948771  0.32892699     0.33500
C1297       C  0.76050239  0.72324875  0.20221995    -0.20300
C1298       C  0.77231776  0.70013937  0.19764700     0.36000
C1299       C  0.77223253  0.68990933  0.17344693    -0.26200
C1300       C  0.76196247  0.70290211  0.15304116     0.02400
C1301       C  0.75183305  0.72695818  0.15736980     0.27200
C1302       C  0.75071466  0.73650770  0.18185922    -0.25400
N1303       N  0.78494420  0.68711880  0.21722888    -0.82800
H1304       H  0.78011304  0.67149664  0.17074220     0.13000
C1305       C  0.76111605  0.69085999  0.12762325     0.02400
N1306       N  0.74296167  0.74178661  0.13685805    -0.81300
H1307       H  0.74228703  0.75460778  0.18512179     0.17800
C1308       C  0.73880927  0.69166119  0.11370663    -0.26200
C1309       C  0.73684325  0.68014001  0.09023643     0.35900
C1310       C  0.75710652  0.66650270  0.08052734    -0.20200
C1311       C  0.77941148  0.66542389  0.09427541    -0.25400
C1312       C  0.78186908  0.67794260  0.11735829     0.27200
H1313       H  0.72248077  0.70086873  0.12129265     0.13000
N1314       N  0.71378423  0.68147770  0.07674899    -0.82700
H1315       H  0.79507909  0.65501827  0.08679882     0.17800
N1316       N  0.80542261  0.67773361  0.13022947    -0.81300
H1317       H  0.69969652  0.67401814  0.08796605     0.33500
H1318       H  0.70965579  0.70028664  0.07362125     0.38000
H1319       H  0.81868705  0.66747444  0.12024124     0.33400
H1320       H  0.81190565  0.69610232  0.13089441     0.30100
H1321       H  0.73614814  0.75894906  0.14314887     0.33400
H1322       H  0.75827923  0.74567482  0.12542956     0.30100
H1323       H  0.77760527  0.66909314  0.21816948     0.38000
H1324       H  0.80370754  0.68535443  0.21213916     0.33500
C1325       C  0.72395460  0.70418103  0.23959338    -0.20300
C1326       C  0.69924538  0.70206154  0.23076422     0.36000
C1327       C  0.68733478  0.67854621  0.23115067    -0.26200
C1328       C  0.70016237  0.65683161  0.23881433     0.02400
C1329       C  0.72565941  0.65895206  0.24539622     0.27200
C1330       C  0.73658249  0.68264607  0.24730311    -0.25400
N1331       N  0.68625304  0.72378450  0.22192198    -0.82800
H1332       H  0.66792278  0.67723834  0.22564701     0.13000
C1333       C  0.68689230  0.63214569  0.24001878     0.02400
N1334       N  0.74052696  0.63702069  0.24977085    -0.81300
H1335       H  0.75527097  0.68436448  0.25480844     0.17800
C1336       C  0.67073415  0.62489578  0.22063890    -0.26200
C1337       C  0.65839417  0.60172635  0.22113290     0.35900
C1338       C  0.66359669  0.58443802  0.24035034    -0.20200
C1339       C  0.67929335  0.59182025  0.25993555    -0.25400
C1340       C  0.68984380  0.61585188  0.26064393     0.27200
H1341       H  0.66751729  0.63730014  0.20502094     0.13000
N1342       N  0.64056905  0.59589901  0.20207464    -0.82700
H1343       H  0.68219688  0.57927732  0.27551437     0.17800
N1344       N  0.70270577  0.62409801  0.28268751    -0.81300
H1345       H  0.62637314  0.60929745  0.20277989     0.33500
H1346       H  0.64932219  0.59749285  0.18475049     0.38000
H1347       H  0.69251437  0.63895147  0.29020052     0.33400
H1348       H  0.70299703  0.61006181  0.29621666     0.30100
H1349       H  0.74140269  0.62709601  0.23302017     0.33400
H1350       H  0.75887454  0.64183662  0.25437127     0.30100
H1351       H  0.69566499  0.73020238  0.20610759     0.38000
H1352       H  0.66818040  0.71914167  0.21622670     0.33500
C1353       C  0.18120982  0.02769265  0.68280981    -0.20300
C1354       C  0.18142781  0.05240758  0.67411476     0.36000
C1355       C  0.19298899  0.05789464  0.65160412    -0.26200
C1356       C  0.20340599  0.03892295  0.63703660     0.02400
C1357       C  0.20553355  0.01458559  0.64665430     0.27200
C1358       C  0.19463595  0.00923394  0.66987310    -0.25400
N1359       N  0.16892395  0.07182708  0.68746629    -0.82800
H1360       H  0.19228080  0.07685778  0.64459099     0.13000
C1361       C  0.20992050  0.04523889  0.61120954     0.02400
N1362       N  0.21742192  0.99528785  0.63232760    -0.81300
H1363       H  0.19456103  0.99019239  0.67664490     0.17800
C1364       C  0.23491665  0.04468716  0.60378262    -0.26200
C1365       C  0.24243963  0.05713666  0.58207983     0.35900
C1366       C  0.22448565  0.07064724  0.56818261    -0.20200
C1367       C  0.19918418  0.06904981  0.57435798    -0.25400
C1368       C  0.19163853  0.05600670  0.59558600     0.27200
H1369       H  0.24875174  0.03614227  0.61582978     0.13000
N1370       N  0.26843310  0.05798567  0.57543084    -0.82700
H1371       H  0.18546751  0.07902717  0.56331162     0.17800
N1372       N  0.16567738  0.05497652  0.60237087    -0.81300
H1373       H  0.27925129  0.04843349  0.58857176     0.33500
H1374       H  0.27048046  0.04825058  0.55866870     0.38000
H1375       H  0.15467305  0.06407384  0.58905477     0.33400
H1376       H  0.16034171  0.03623582  0.60217381     0.30100
H1377       H  0.21736207  0.97845508  0.64216667     0.33400
H1378       H  0.20672323  0.99243846  0.61627007     0.30100
H1379       H  0.15516248  0.07938886  0.67586276     0.38000
H1380       H  0.18200487  0.08582393  0.69109509     0.33500
C1381       C  0.53060655  0.31439933  0.18440536    -0.20300
C1382       C  0.51443486  0.32793174  0.20021738     0.36000
C1383       C  0.52324961  0.34977102  0.21169580    -0.26200
C1384       C  0.54784652  0.35770278  0.20782096     0.02400
C1385       C  0.56460628  0.34246968  0.19457505     0.27200
C1386       C  0.55572661  0.32129190  0.18247997    -0.25400
N1387       N  0.48870172  0.32079036  0.20271316    -0.82800
H1388       H  0.51057993  0.36141195  0.22232857     0.13000
C1389       C  0.55529217  0.38309061  0.21503641     0.02400
N1390       N  0.59041599  0.34916963  0.19245173    -0.81300
H1391       H  0.56821137  0.31108293  0.17032952     0.17800
C1392       C  0.55583072  0.38982041  0.24023944    -0.26200
C1393       C  0.56634163  0.41261915  0.24763586     0.35900
C1394       C  0.57653956  0.42853866  0.22932067    -0.20200
C1395       C  0.57469078  0.42231949  0.20409080    -0.25400
C1396       C  0.56345909  0.40004054  0.19668169     0.27200
H1397       H  0.54921061  0.37675960  0.25415144     0.13000
N1398       N  0.56864146  0.41864217  0.27365820    -0.82700
H1399       H  0.58296911  0.43439700  0.19021170     0.17800
N1400       N  0.56114992  0.39403886  0.17064616    -0.81300
H1401       H  0.56148186  0.40425037  0.28467274     0.33500
H1402       H  0.55744049  0.43425787  0.27707844     0.38000
H1403       H  0.54208678  0.39281316  0.16655597     0.33400
H1404       H  0.56827579  0.40842733  0.15961757     0.30100
H1405       H  0.60111746  0.33444376  0.19951817     0.33400
H1406       H  0.59467506  0.35109613  0.17352909     0.30100
H1407       H  0.48831843  0.30373738  0.21215743     0.38000
H1408       H  0.47910347  0.33351896  0.21395655     0.33500
C1409       C  0.68262930  0.18051479  0.02860901    -0.20300
C1410       C  0.67118312  0.17646851  0.05190049     0.36000
C1411       C  0.64921608  0.18907847  0.05779941    -0.26200
C1412       C  0.63798907  0.20532137  0.04069003     0.02400
C1413       C  0.65049943  0.21134751  0.01838029     0.27200
C1414       C  0.67299887  0.19896442  0.01261257    -0.25400
N1415       N  0.68127654  0.15883461  0.06928895    -0.82800
H1416       H  0.64015715  0.18521489  0.07545084     0.13000
C1417       C  0.61267958  0.21457715  0.04662513     0.02400
N1418       N  0.63981710  0.22903782  0.00128650    -0.81300
H1419       H  0.68188997  0.20230174  0.99479018     0.17800
C1420       C  0.60874236  0.24009212  0.05047445    -0.26200
C1421       C  0.58717751  0.24866184  0.06255602     0.35900
C1422       C  0.56924297  0.23105115  0.07090730    -0.20200
C1423       C  0.57219617  0.20585355  0.06480409    -0.25400
C1424       C  0.59357024  0.19745546  0.05238546     0.27200
H1425       H  0.62332716  0.25326971  0.04579543     0.13000
N1426       N  0.58515454  0.27499297  0.06734560    -0.82700
H1427       H  0.55851330  0.19244863  0.07107668     0.17800
N1428       N  0.59674325  0.17137406  0.04693634    -0.81300
H1429       H  0.59969601  0.27997165  0.07936431     0.33500
H1430       H  0.56857698  0.27970742  0.07629740     0.38000
H1431       H  0.58112137  0.16121625  0.05269019     0.33400
H1432       H  0.59777200  0.16952161  0.02756494     0.30100
H1433       H  0.65142378  0.23136216  0.98580202     0.33400
H1434       H  0.62305408  0.22156028  0.99467531     0.30100
H1435       H  0.66774268  0.14521300  0.07264811     0.38000
H1436       H  0.68471999  0.16813527  0.08606756     0.33500
C1437       C  0.48779377  0.33478429  0.09410052    -0.20300
C1438       C  0.48913012  0.35750503  0.10757142     0.36000
C1439       C  0.48762752  0.38037914  0.09470185    -0.26200
C1440       C  0.48445101  0.38123899  0.06874504     0.02400
C1441       C  0.48280989  0.35861918  0.05535505     0.27200
C1442       C  0.48478705  0.33572772  0.06810513    -0.25400
N1443       N  0.49296392  0.35740302  0.13411852    -0.82800
H1444       H  0.48992256  0.39765770  0.10490303     0.13000
C1445       C  0.48525894  0.40577928  0.05555426     0.02400
N1446       N  0.47941028  0.35900808  0.02877278    -0.81300
H1447       H  0.48400086  0.31850917  0.05764322     0.17800
C1448       C  0.50420641  0.40986925  0.03795687    -0.26200
C1449       C  0.50608731  0.43262700  0.02509890     0.35900
C1450       C  0.48932598  0.45219513  0.03061912    -0.20200
C1451       C  0.47008941  0.44811435  0.04787430    -0.25400
C1452       C  0.46769099  0.42507009  0.06011082     0.27200
H1453       H  0.51756762  0.39514648  0.03417160     0.13000
N1454       N  0.52487124  0.43596116  0.00626417    -0.82700
H1455       H  0.45679749  0.46287865  0.05172154     0.17800
N1456       N  0.44675084  0.42150307  0.07630618    -0.81300
H1457       H  0.53576766  0.41986283  0.00445360     0.33500
H1458       H  0.51572158  0.43848234  0.98921974     0.38000
H1459       H  0.43681739  0.40589560  0.07016878     0.33400
H1460       H  0.45318132  0.41813123  0.09436109     0.30100
H1461       H  0.47874685  0.34086897  0.02167344     0.33400
H1462       H  0.46198677  0.36709724  0.02516762     0.30100
H1463       H  0.51083107  0.35026800  0.13749660     0.38000
H1464       H  0.49286840  0.37558263  0.14118060     0.33500
C1465       C  0.58752193  0.26199620  0.16581212    -0.20300
C1466       C  0.61029751  0.25968528  0.15265650     0.36000
C1467       C  0.63298914  0.26177485  0.16560350    -0.26200
C1468       C  0.63345808  0.26589943  0.19137963     0.02400
C1469       C  0.61077365  0.26890904  0.20443533     0.27200
C1470       C  0.58800276  0.26643516  0.19158741    -0.25400
N1471       N  0.61035563  0.25426913  0.12639627    -0.82800
H1472       H  0.65045063  0.25924177  0.15570689     0.13000
C1473       C  0.65786518  0.26493864  0.20446455     0.02400
N1474       N  0.61101130  0.27445841  0.23064087    -0.81300
H1475       H  0.57055094  0.26842156  0.20161438     0.17800
C1476       C  0.67701185  0.28157503  0.19779517    -0.26200
C1477       C  0.70106917  0.27944881  0.20829118     0.35900
C1478       C  0.70588384  0.26026747  0.22559287    -0.20200
C1479       C  0.68661726  0.24405243  0.23255792    -0.25400
C1480       C  0.66280841  0.24607417  0.22203143     0.27200
H1481       H  0.67319800  0.29603664  0.18420252     0.13000
N1482       N  0.72044355  0.29672483  0.20172277    -0.82700
H1483       H  0.69018876  0.22957084  0.24620762     0.17800
N1484       N  0.64389580  0.22840385  0.22860895    -0.81300
H1485       H  0.71372078  0.30994563  0.18905527     0.33500
H1486       H  0.73445283  0.28673783  0.19253863     0.38000
H1487       H  0.65050719  0.21056099  0.22430659     0.33400
H1488       H  0.64120181  0.22933417  0.24789171     0.30100
H1489       H  0.61924145  0.29198274  0.23281625     0.33400
H1490       H  0.59278740  0.27600657  0.23746043     0.30100
H1491       H  0.60292199  0.23640435  0.12405669     0.38000
H1492       H  0.62860685  0.25355499  0.11952273     0.33500
C1493       C  0.54512858  0.02892295  0.98972022    -0.20300
C1494       C  0.54801525  0.05463953  0.98498672     0.36000
C1495       C  0.57206354  0.06528790  0.98461925    -0.26200
C1496       C  0.59374323  0.05064423  0.98769982     0.02400
C1497       C  0.59078023  0.02464842  0.99102615     0.27200
C1498       C  0.56672522  0.01417892  0.99218017    -0.25400
N1499       N  0.52666681  0.07005451  0.98035603    -0.82800
H1500       H  0.57367659  0.08527318  0.98224881     0.13000
C1501       C  0.61912514  0.06278965  0.98797372     0.02400
N1502       N  0.61214373  0.00866714  0.99307578    -0.81300
H1503       H  0.56489003  0.99433217  0.99553640     0.17800
C1504       C  0.63642109  0.05661979  0.00679188    -0.26200
C1505       C  0.66011367  0.06802150  0.00817678     0.35900
C1506       C  0.66659947  0.08682271  0.99083101    -0.20200
C1507       C  0.64919665  0.09333124  0.97233823    -0.25400
C1508       C  0.62599499  0.08107871  0.97021618     0.27200
H1509       H  0.63121689  0.04323309  0.02096535     0.13000
N1510       N  0.67719308  0.06109577  0.02770131    -0.82700
H1511       H  0.65379350  0.10800996  0.95931948     0.17800
N1512       N  0.60951727  0.08702647  0.94989493    -0.81300
H1513       H  0.66983997  0.04663448  0.03849699     0.33500
H1514       H  0.67911240  0.07644951  0.03956141     0.38000
H1515       H  0.61729152  0.10080871  0.93852516     0.33400
H1516       H  0.60779695  0.07102725  0.93888770     0.30100
H1517       H  0.61109478  0.99930195  0.01013619     0.33400
H1518       H  0.61116231  0.99536593  0.97885351     0.30100
H1519       H  0.52865947  0.07787252  0.96261872     0.38000
H1520       H  0.52687137  0.08468802  0.99323171     0.33500
C1521       C  0.50856524  0.04654604  0.02873758    -0.20300
C1522       C  0.52949053  0.05275731  0.04367854     0.36000
C1523       C  0.53117019  0.07685256  0.05397719    -0.26200
C1524       C  0.51182220  0.09447598  0.05102797     0.02400
C1525       C  0.49045459  0.08760109  0.03736040     0.27200
C1526       C  0.48937187  0.06420156  0.02584160    -0.25400
N1527       N  0.54890571  0.03511624  0.04936851    -0.82800
H1528       H  0.54763543  0.08172387  0.06464772     0.13000
C1529       C  0.51367368  0.11973155  0.06277570     0.02400
N1530       N  0.46946587  0.10411238  0.03561975    -0.81300
H1531       H  0.47327111  0.05974388  0.01445191     0.17800
C1532       C  0.50895699  0.14126791  0.04845773    -0.26200
C1533       C  0.50854622  0.16527291  0.05930384     0.35900
C1534       C  0.51407446  0.16799001  0.08492626    -0.20200
C1535       C  0.52020128  0.14645619  0.09878321    -0.25400
C1536       C  0.51934176  0.12248167  0.08828521     0.27200
H1537       H  0.50507571  0.13927256  0.02873914     0.13000
N1538       N  0.50282748  0.18671820  0.04426882    -0.82700
H1539       H  0.52492950  0.14812183  0.11832769     0.17800
N1540       N  0.52353360  0.10089157  0.10366493    -0.81300
H1541       H  0.50094967  0.18161786  0.02555116     0.33500
H1542       H  0.48530378  0.19329761  0.04980860     0.38000
H1543       H  0.52755820  0.10611056  0.12200926     0.33400
H1544       H  0.50686587  0.09077779  0.10426020     0.30100
H1545       H  0.46599253  0.10758312  0.01675197     0.33400
H1546       H  0.45391457  0.09495402  0.04300008     0.30100
H1547       H  0.54506508  0.01757274  0.04190512     0.38000
H1548       H  0.56541108  0.04151061  0.04118418     0.33500
C1549       C  0.67339171  0.02060028  0.82373898    -0.20300
C1550       C  0.69855427  0.02808079  0.82225186     0.36000
C1551       C  0.71071924  0.03599918  0.84413689    -0.26200
C1552       C  0.69794637  0.03628724  0.86697628     0.02400
C1553       C  0.67340642  0.02724969  0.86855454     0.27200
C1554       C  0.66135692  0.01964365  0.84689764    -0.25400
N1555       N  0.71110265  0.02886000  0.79860311    -0.82800
H1556       H  0.72951558  0.04338434  0.84317611     0.13000
C1557       C  0.70779585  0.05069581  0.88797773     0.02400
N1558       N  0.66037215  0.02737028  0.89200453    -0.81300
H1559       H  0.64206466  0.01374108  0.84797832     0.17800
C1560       C  0.69600008  0.07331121  0.89313700    -0.26200
C1561       C  0.70223415  0.08706372  0.91415455     0.35900
C1562       C  0.72124743  0.07833576  0.93035248    -0.20200
C1563       C  0.73321987  0.05554928  0.92503472    -0.25400
C1564       C  0.72654171  0.04153721  0.90388281     0.27200
H1565       H  0.68136800  0.08013917  0.88089348     0.13000
N1566       N  0.68915055  0.10996740  0.91870592    -0.82700
H1567       H  0.74805243  0.04888961  0.93706789     0.17800
N1568       N  0.73864611  0.01823757  0.89843423    -0.81300
H1569       H  0.69236615  0.12189586  0.90363056     0.33500
H1570       H  0.67003489  0.10609818  0.91916279     0.38000
H1571       H  0.75218337  0.01424888  0.91191671     0.33400
H1572       H  0.72518987  0.00419180  0.89968392     0.30100
H1573       H  0.64220354  0.02058530  0.88986629     0.33400
H1574       H  0.66964763  0.01499749  0.90391318     0.30100
H1575       H  0.70224085  0.04239016  0.78769673     0.38000
H1576       H  0.72955970  0.03476750  0.80089763     0.33500
C1577       C  0.68110333  0.97894488  0.68193643    -0.20300
C1578       C  0.68560341  0.99573418  0.66224977     0.36000
C1579       C  0.69733025  0.98702782  0.64055063    -0.26200
C1580       C  0.70493827  0.96211285  0.63868995     0.02400
C1581       C  0.70281346  0.94607749  0.65940538     0.27200
C1582       C  0.69069623  0.95470540  0.68090757    -0.25400
N1583       N  0.67662529  0.02098216  0.66371600    -0.82800
H1584       H  0.69928343  0.99923387  0.62457100     0.13000
C1585       C  0.71152231  0.95208460  0.61403656     0.02400
N1586       N  0.71215840  0.92093445  0.65816846    -0.81300
H1587       H  0.68772881  0.94221121  0.69638941     0.17800
C1588       C  0.73639886  0.95220570  0.60613855    -0.26200
C1589       C  0.74323103  0.94091052  0.58350664     0.35900
C1590       C  0.72469119  0.92917193  0.56885281    -0.20200
C1591       C  0.69970167  0.92984291  0.57650756    -0.25400
C1592       C  0.69286528  0.94145929  0.59887838     0.27200
H1593       H  0.75052793  0.96048936  0.61798845     0.13000
N1594       N  0.76906741  0.93971517  0.57630342    -0.82700
H1595       H  0.68563130  0.92047742  0.56542904     0.17800
N1596       N  0.66712601  0.94221648  0.60651382    -0.81300
H1597       H  0.78039008  0.94787586  0.58992219     0.33500
H1598       H  0.77115045  0.95055542  0.56024808     0.38000
H1599       H  0.65570860  0.93404230  0.59297392     0.33400
H1600       H  0.66533384  0.93134647  0.62257615     0.30100
H1601       H  0.70935578  0.91176790  0.67513968     0.33400
H1602       H  0.70168917  0.91126728  0.64487149     0.30100
H1603       H  0.68637529  0.02984301  0.67809042     0.38000
H1604       H  0.68080476  0.03068619  0.64734543     0.33500
C1605       C  0.66769362  0.91786365  0.73767422    -0.20300
C1606       C  0.68368642  0.90928650  0.75680122     0.36000
C1607       C  0.69329485  0.88485184  0.75571273    -0.26200
C1608       C  0.68876552  0.86912134  0.73519743     0.02400
C1609       C  0.67361047  0.87814569  0.71553252     0.27200
C1610       C  0.66271100  0.90203816  0.71735983    -0.25400
N1611       N  0.68928611  0.92491881  0.77784222    -0.82800
H1612       H  0.70429945  0.87796672  0.77119985     0.13000
C1613       C  0.69995336  0.84339021  0.73493594     0.02400
N1614       N  0.66946763  0.86317807  0.69369094    -0.81300
H1615       H  0.65048769  0.90853981  0.70260713     0.17800
C1616       C  0.68529351  0.82248051  0.72869363    -0.26200
C1617       C  0.69537277  0.79810036  0.72892162     0.35900
C1618       C  0.72007247  0.79428076  0.73737620    -0.20200
C1619       C  0.73462651  0.81512316  0.74348269    -0.25400
C1620       C  0.72516517  0.83942941  0.74158899     0.27200
H1621       H  0.66589535  0.82511702  0.72361803     0.13000
N1622       N  0.68073391  0.77744374  0.72031293    -0.82700
H1623       H  0.75375325  0.81250331  0.74958627     0.17800
N1624       N  0.74148972  0.86009423  0.74599989    -0.81300
H1625       H  0.66290090  0.78337722  0.71498187     0.33500
H1626       H  0.68930366  0.77045178  0.70428685     0.38000
H1627       H  0.74871721  0.85839574  0.76403296     0.33400
H1628       H  0.75637141  0.85884380  0.73344854     0.30100
H1629       H  0.65786874  0.87249365  0.68105513     0.33400
H1630       H  0.68669744  0.86082493  0.68482628     0.30100
H1631       H  0.70048361  0.93951584  0.77142006     0.38000
H1632       H  0.70007850  0.91524776  0.79092100     0.33500
C1633       C  0.58238550  0.98665840  0.83155001    -0.20300
C1634       C  0.59459275  0.97846376  0.85367518     0.36000
C1635       C  0.58200191  0.97944142  0.87664824    -0.26200
C1636       C  0.55680887  0.98640176  0.87831818     0.02400
C1637       C  0.54395243  0.99254981  0.85604127     0.27200
C1638       C  0.55699169  0.99324811  0.83310468    -0.25400
N1639       N  0.61986610  0.96936172  0.85295144    -0.82800
H1640       H  0.59213109  0.97484963  0.89352337     0.13000
C1641       C  0.54474260  0.98803881  0.90363112     0.02400
N1642       N  0.51767182  0.99796325  0.85674053    -0.81300
H1643       H  0.54720762  0.99885967  0.81633510     0.17800
C1644       C  0.53141152  0.00965119  0.91029597    -0.26200
C1645       C  0.52076794  0.01243843  0.93417469     0.35900
C1646       C  0.52448578  0.99382139  0.95247385    -0.20200
C1647       C  0.53834964  0.97251102  0.94609053    -0.25400
C1648       C  0.54769801  0.96899458  0.92174684     0.27200
H1649       H  0.52938552  0.02456854  0.89683269     0.13000
N1650       N  0.50616418  0.03420663  0.93993114    -0.82700
H1651       H  0.54180074  0.95842720  0.96009227     0.17800
N1652       N  0.55989789  0.94598324  0.91527606    -0.81300
H1653       H  0.50530554  0.04620484  0.92461714     0.33500
H1654       H  0.48786797  0.02837433  0.94345313     0.38000
H1655       H  0.56043318  0.93390764  0.93060854     0.33400
H1656       H  0.54902988  0.93723548  0.90168725     0.30100
H1657       H  0.51099518  0.00202973  0.83888170     0.33400
H1658       H  0.50852743  0.98175011  0.86253899     0.30100
H1659       H  0.62641599  0.96534361  0.87097479     0.38000
H1660       H  0.61971287  0.95246294  0.84339303     0.33500
C1661       C  0.52957404  0.68294068  0.32291757    -0.20300
C1662       C  0.51165871  0.66899073  0.30951035     0.36000
C1663       C  0.51880610  0.64628000  0.29859482    -0.26200
C1664       C  0.54346644  0.63785712  0.30039325     0.02400
C1665       C  0.56176309  0.65278580  0.31186096     0.27200
C1666       C  0.55454176  0.67507542  0.32335622    -0.25400
N1667       N  0.48603461  0.67699059  0.30852297    -0.82800
H1668       H  0.50505552  0.63479456  0.28924378     0.13000
C1669       C  0.55018162  0.61317469  0.29059357     0.02400
N1670       N  0.58748200  0.64499538  0.31211961    -0.81300
H1671       H  0.56821514  0.68578773  0.33368881     0.17800
C1672       C  0.55894562  0.61150118  0.26612647    -0.26200
C1673       C  0.57003508  0.58946695  0.25749000     0.35900
C1674       C  0.57210947  0.56887249  0.27369066    -0.20200
C1675       C  0.56183903  0.57001096  0.29764391    -0.25400
C1676       C  0.55082295  0.59212732  0.30635913     0.27200
H1677       H  0.55840082  0.62786392  0.25427205     0.13000
N1678       N  0.58090840  0.58848363  0.23301635    -0.82700
H1679       H  0.56354623  0.55409554  0.30990166     0.17800
N1680       N  0.54105557  0.59358646  0.33129606    -0.81300
H1681       H  0.57852909  0.60549498  0.22377113     0.33500
H1682       H  0.57109670  0.57514557  0.22274639     0.38000
H1683       H  0.54284330  0.57638137  0.34031666     0.33400
H1684       H  0.55199902  0.60620560  0.34133336     0.30100
H1685       H  0.59863031  0.65844891  0.32076106     0.33400
H1686       H  0.58880132  0.62887082  0.32299550     0.30100
H1687       H  0.48539244  0.69327601  0.29782905     0.38000
H1688       H  0.47510647  0.66387222  0.29910337     0.33500
C1689       C  0.56945410  0.77775643  0.42990012    -0.20300
C1690       C  0.57855343  0.80231636  0.42797536     0.36000
C1691       C  0.60069161  0.80877557  0.43997733    -0.26200
C1692       C  0.61437386  0.79099858  0.45335883     0.02400
C1693       C  0.60440684  0.76704637  0.45725853     0.27200
C1694       C  0.58170325  0.76069841  0.44567316    -0.25400
N1695       N  0.56598024  0.82052785  0.41299660    -0.82800
H1696       H  0.60802077  0.82747317  0.43765140     0.13000
C1697       C  0.63984209  0.79776282  0.46118722     0.02400
N1698       N  0.61793667  0.74901149  0.47180518    -0.81300
H1699       H  0.57474199  0.74180633  0.44726327     0.17800
C1700       C  0.64548038  0.79993982  0.48657096    -0.26200
C1701       C  0.66742265  0.81198827  0.49426545     0.35900
C1702       C  0.68363295  0.82194971  0.47605323    -0.20200
C1703       C  0.67894611  0.81788095  0.45076077    -0.25400
C1704       C  0.65736330  0.80540125  0.44312331     0.27200
H1705       H  0.63197060  0.79384608  0.50030078     0.13000
N1706       N  0.67238606  0.81566308  0.52036209    -0.82700
H1707       H  0.69152429  0.82551956  0.43694260     0.17800
N1708       N  0.65241366  0.80154510  0.41705458    -0.81300
H1709       H  0.65879531  0.80684758  0.53120133     0.33500
H1710       H  0.67082688  0.83473871  0.52407576     0.38000
H1711       H  0.66709817  0.80840136  0.40620977     0.33400
H1712       H  0.65179771  0.78229751  0.41400521     0.30100
H1713       H  0.60801603  0.73225994  0.47279674     0.33400
H1714       H  0.63460658  0.74508477  0.46245724     0.30100
H1715       H  0.56199788  0.83591884  0.42429120     0.38000
H1716       H  0.57826700  0.82641797  0.39905849     0.33500
C1717       C  0.49438538  0.66403633  0.41509081    -0.20300
C1718       C  0.49575033  0.64115756  0.40183244     0.36000
C1719       C  0.49251713  0.61841684  0.41459342    -0.26200
C1720       C  0.48808109  0.61779219  0.44034009     0.02400
C1721       C  0.48618902  0.64056491  0.45350457     0.27200
C1722       C  0.48967743  0.66339226  0.44083798    -0.25400
N1723       N  0.50115789  0.64097615  0.37555906    -0.82800
H1724       H  0.49435389  0.60098016  0.40453664     0.13000
C1725       C  0.48801852  0.59319704  0.45355423     0.02400
N1726       N  0.48064013  0.64036765  0.47970768    -0.81300
H1727       H  0.48823191  0.68078790  0.45101378     0.17800
C1728       C  0.50622444  0.58875506  0.47183400    -0.26200
C1729       C  0.50834093  0.56544166  0.48361539     0.35900
C1730       C  0.49216172  0.54583500  0.47682318    -0.20200
C1731       C  0.47353484  0.55023767  0.45889610    -0.25400
C1732       C  0.47123094  0.57381910  0.44725361     0.27200
H1733       H  0.51919576  0.60348444  0.47661576     0.13000
N1734       N  0.52711614  0.56141300  0.50237358    -0.82700
H1735       H  0.46097104  0.53523252  0.45389962     0.17800
N1736       N  0.45198017  0.57818960  0.42909179    -0.81300
H1737       H  0.53773559  0.57753299  0.50505492     0.33500
H1738       H  0.51795448  0.55791308  0.51920920     0.38000
H1739       H  0.44120429  0.56214206  0.42659697     0.33400
H1740       H  0.44003397  0.59185001  0.43630060     0.30100
H1741       H  0.47979843  0.65856913  0.48665700     0.33400
H1742       H  0.46279688  0.63278053  0.48186025     0.30100
H1743       H  0.50119282  0.62276056  0.36860210     0.38000
H1744       H  0.51929260  0.64778505  0.37321692     0.33500
C1745       C  0.58616893  0.74452935  0.33584209    -0.20300
C1746       C  0.60777551  0.75514943  0.34656994     0.36000
C1747       C  0.63069187  0.75420528  0.33380520    -0.26200
C1748       C  0.63276594  0.74222893  0.31065760     0.02400
C1749       C  0.61137085  0.73089439  0.30014173     0.27200
C1750       C  0.58812662  0.73278727  0.31252912    -0.25400
N1751       N  0.60641600  0.76729788  0.37032966    -0.82800
H1752       H  0.64702764  0.76278324  0.34209029     0.13000
C1753       C  0.65753391  0.74174048  0.29790573     0.02400
N1754       N  0.61356349  0.71641233  0.27768710    -0.81300
H1755       H  0.57168215  0.72430019  0.30441478     0.17800
C1756       C  0.67609523  0.72498180  0.30597489    -0.26200
C1757       C  0.70015637  0.72487306  0.29532651     0.35900
C1758       C  0.70573720  0.74182406  0.27587223    -0.20200
C1759       C  0.68720469  0.75869725  0.26805168    -0.25400
C1760       C  0.66333072  0.75906541  0.27899827     0.27200
H1761       H  0.67195000  0.71212007  0.32098552     0.13000
N1762       N  0.71844351  0.70787978  0.30519619    -0.82700
H1763       H  0.69162264  0.77199339  0.25349174     0.17800
N1764       N  0.64543325  0.77779308  0.27185801    -0.81300
H1765       H  0.71230715  0.68978289  0.30139161     0.33500
H1766       H  0.73568458  0.70992933  0.29638292     0.38000
H1767       H  0.65301941  0.78971637  0.25843579     0.33400
H1768       H  0.63033026  0.76893808  0.26335831     0.30100
H1769       H  0.59636385  0.70848320  0.27300054     0.33400
H1770       H  0.61828036  0.72835667  0.26308734     0.30100
H1771       H  0.61226607  0.78575986  0.36811007     0.38000
H1772       H  0.61891984  0.75842717  0.38241647     0.33500
C1773       C  0.54544496  0.97400205  0.51250277    -0.20300
C1774       C  0.54991939  0.95131838  0.52493927     0.36000
C1775       C  0.57429269  0.94149243  0.52595644    -0.26200
C1776       C  0.59441875  0.95362176  0.51425883     0.02400
C1777       C  0.58980171  0.97625794  0.50163324     0.27200
C1778       C  0.56556397  0.98638135  0.50121779    -0.25400
N1779       N  0.52976944  0.93789781  0.53607821    -0.82800
H1780       H  0.57741630  0.92392333  0.53545435     0.13000
C1781       C  0.61934142  0.94098464  0.51320403     0.02400
N1782       N  0.60935646  0.98838923  0.48810501    -0.81300
H1783       H  0.56222083  0.00362235  0.49118688     0.17800
C1784       C  0.62055304  0.91641223  0.50426563    -0.26200
C1785       C  0.64342845  0.90365039  0.50226288     0.35900
C1786       C  0.66585555  0.91575906  0.50911276    -0.20200
C1787       C  0.66475403  0.94033126  0.51810351    -0.25400
C1788       C  0.64168622  0.95280260  0.52071861     0.27200
H1789       H  0.60351514  0.90723095  0.49841497     0.13000
N1790       N  0.64399126  0.87857210  0.49275773    -0.82700
H1791       H  0.68178289  0.94962146  0.52380401     0.17800
N1792       N  0.64096862  0.97710259  0.53176608    -0.81300
H1793       H  0.62590583  0.87214918  0.48917982     0.33500
H1794       H  0.65317561  0.87900428  0.47559108     0.38000
H1795       H  0.64867321  0.97581253  0.54964047     0.33400
H1796       H  0.65235653  0.98887768  0.52121294     0.30100
H1797       H  0.60393523  0.98959242  0.46941903     0.33400
H1798       H  0.61109728  0.00654239  0.49501465     0.30100
H1799       H  0.53384863  0.93555351  0.55499979     0.38000
H1800       H  0.52900588  0.92023330  0.52786718     0.33500
C1801       C  0.33433707  0.08631665  0.49244784    -0.20300
C1802       C  0.35747908  0.09910690  0.49279168     0.36000
C1803       C  0.37987207  0.08569944  0.48966609    -0.26200
C1804       C  0.37986199  0.05978110  0.48640615     0.02400
C1805       C  0.35685583  0.04700760  0.48545063     0.27200
C1806       C  0.33434411  0.06033544  0.48880876    -0.25400
N1807       N  0.35830794  0.12556745  0.49714449    -0.82800
H1808       H  0.39757544  0.09540611  0.49070664     0.13000
C1809       C  0.40421349  0.04625035  0.48664637     0.02400
N1810       N  0.35650940  0.02057890  0.48102784    -0.81300
H1811       H  0.31670924  0.05048173  0.48816582     0.17800
C1812       C  0.40967309  0.03057813  0.50684109    -0.26200
C1813       C  0.43338347  0.01962634  0.50955621     0.35900
C1814       C  0.45226173  0.02469489  0.49190778    -0.20200
C1815       C  0.44663619  0.03975110  0.47121369    -0.25400
C1816       C  0.42268276  0.05045051  0.46832971     0.27200
H1817       H  0.39549589  0.02734434  0.52087283     0.13000
N1818       N  0.43853580  0.00349497  0.53035122    -0.82700
H1819       H  0.46095752  0.04319162  0.45739478     0.17800
N1820       N  0.41699528  0.06559047  0.44696217    -0.81300
H1821       H  0.42280334  0.00184778  0.54178890     0.33500
H1822       H  0.44218709  0.98570709  0.52329937     0.38000
H1823       H  0.43250131  0.06676885  0.43519291     0.33400
H1824       H  0.40300933  0.05648080  0.43685991     0.30100
H1825       H  0.33814596  0.01399073  0.48073021     0.33400
H1826       H  0.36379820  0.01752071  0.46320380     0.30100
H1827       H  0.35194945  0.12876860  0.51529905     0.38000
H1828       H  0.37667770  0.13209356  0.49648906     0.33500
C1829       C  0.58827914  0.01408965  0.66593739    -0.20300
C1830       C  0.60091705  0.00860036  0.64339335     0.36000
C1831       C  0.58807363  0.01009162  0.62052994    -0.26200
C1832       C  0.56276054  0.01675459  0.61947356     0.02400
C1833       C  0.55018333  0.02265630  0.64190775     0.27200
C1834       C  0.56298820  0.02101072  0.66490442    -0.25400
N1835       N  0.62648045  0.00041087  0.64380591    -0.82800
H1836       H  0.59764877  0.00509460  0.60344924     0.13000
C1837       C  0.54939168  0.01570368  0.59495916     0.02400
N1838       N  0.52446288  0.03033821  0.64121581    -0.81300
H1839       H  0.55325627  0.02531410  0.68207800     0.17800
C1840       C  0.52852585  0.00008957  0.59250147    -0.26200
C1841       C  0.51623335  0.99732789  0.56963303     0.35900
C1842       C  0.52498849  0.01014322  0.54831838    -0.20200
C1843       C  0.54564627  0.02601228  0.55065054    -0.25400
C1844       C  0.55788887  0.02901795  0.57380404     0.27200
H1845       H  0.52192229  0.98961884  0.60845986     0.13000
N1846       N  0.49476540  0.98142391  0.56860362    -0.82700
H1847       H  0.55227688  0.03591428  0.53434996     0.17800
N1848       N  0.57887846  0.04552912  0.57595746    -0.81300
H1849       H  0.49785503  0.96752092  0.55544286     0.33500
H1850       H  0.47941593  0.99193539  0.56265810     0.38000
H1851       H  0.58279502  0.05384839  0.55876522     0.33400
H1852       H  0.57378784  0.05991609  0.58808642     0.30100
H1853       H  0.51796240  0.03411390  0.65919553     0.33400
H1854       H  0.52356573  0.04713466  0.63133609     0.30100
H1855       H  0.62684469  0.98282145  0.65219005     0.38000
H1856       H  0.63327123  0.99793055  0.62570530     0.33500
C1857       C  0.50767812  0.95131303  0.47875320    -0.20300
C1858       C  0.49073175  0.93229359  0.48571668     0.36000
C1859       C  0.49302679  0.90832008  0.47556518    -0.26200
C1860       C  0.51213408  0.90254304  0.45865533     0.02400
C1861       C  0.52985808  0.92106502  0.45271180     0.27200
C1862       C  0.52761174  0.94516999  0.46288142    -0.25400
N1863       N  0.47125869  0.93668425  0.50348552    -0.82800
H1864       H  0.47938228  0.89425248  0.48046098     0.13000
C1865       C  0.51200932  0.87788906  0.44572182     0.02400
N1866       N  0.55027210  0.91536617  0.43644083    -0.81300
H1867       H  0.54154243  0.95901597  0.45833340     0.17800
C1868       C  0.50985645  0.87755115  0.41971585    -0.26200
C1869       C  0.50819455  0.85507274  0.40651037     0.35900
C1870       C  0.50879914  0.83201891  0.41936875    -0.20200
C1871       C  0.51069477  0.83227492  0.44552502    -0.25400
C1872       C  0.51248387  0.85499269  0.45882055     0.27200
H1873       H  0.50889666  0.89499014  0.40953190     0.13000
N1874       N  0.50515922  0.85588818  0.37997623    -0.82700
H1875       H  0.51125492  0.81474341  0.45555132     0.17800
N1876       N  0.51498659  0.85491790  0.48549143    -0.81300
H1877       H  0.52037053  0.86545201  0.37241198     0.33500
H1878       H  0.48895389  0.86603132  0.37594862     0.38000
H1879       H  0.51505645  0.83664678  0.49229192     0.33400
H1880       H  0.53243746  0.86251506  0.48979835     0.30100
H1881       H  0.54947004  0.92759800  0.42128440     0.33400
H1882       H  0.56688572  0.91878444  0.44610292     0.30100
H1883       H  0.47933590  0.94306868  0.52002607     0.38000
H1884       H  0.45944840  0.95056476  0.49664064     0.33500
C1885       C  0.42231764  0.92310028  0.26949392    -0.20300
C1886       C  0.44679004  0.92275795  0.27905759     0.36000
C1887       C  0.45744816  0.89973517  0.28596472    -0.26200
C1888       C  0.44386864  0.87745989  0.28346606     0.02400
C1889       C  0.42013228  0.87777104  0.27228120     0.27200
C1890       C  0.40956720  0.90060848  0.26547533    -0.25400
N1891       N  0.46011034  0.94567108  0.28289778    -0.82800
H1892       H  0.47565702  0.89929677  0.29478264     0.13000
C1893       C  0.45250517  0.85486211  0.29654382     0.02400
N1894       N  0.40645930  0.85494122  0.26899965    -0.81300
H1895       H  0.39086538  0.90095408  0.25771694     0.17800
C1896       C  0.43846389  0.84657161  0.31688821    -0.26200
C1897       C  0.44671036  0.82677462  0.33160497     0.35900
C1898       C  0.46973903  0.81512048  0.32617433    -0.20200
C1899       C  0.48307591  0.82244977  0.30480237    -0.25400
C1900       C  0.47457198  0.84228005  0.28984164     0.27200
H1901       H  0.42123473  0.85601785  0.32180481     0.13000
N1902       N  0.43170320  0.81883121  0.35222773    -0.82700
H1903       H  0.50060184  0.81339690  0.30029586     0.17800
N1904       N  0.48832130  0.84994593  0.26817876    -0.81300
H1905       H  0.41415894  0.81370021  0.34538818     0.33500
H1906       H  0.42927670  0.83400922  0.36422522     0.38000
H1907       H  0.50415314  0.83874388  0.26583363     0.33400
H1908       H  0.47693820  0.84686015  0.25264089     0.30100
H1909       H  0.38907502  0.85844066  0.26079845     0.33400
H1910       H  0.41647723  0.84384418  0.25647205     0.30100
H1911       H  0.45056976  0.95581931  0.29654282     0.38000
H1912       H  0.47790413  0.94206235  0.29007659     0.33500
C1913       C  0.48767316  0.17495758  0.17635753    -0.20300
C1914       C  0.48552933  0.17495409  0.20258763     0.36000
C1915       C  0.47766381  0.15292845  0.21462862    -0.26200
C1916       C  0.47400767  0.13090904  0.20089989     0.02400
C1917       C  0.48042661  0.13020731  0.17549853     0.27200
C1918       C  0.48625192  0.15235495  0.16334758    -0.25400
N1919       N  0.49013287  0.19728958  0.21661941    -0.82800
H1920       H  0.47322289  0.15323519  0.23432519     0.13000
C1921       C  0.45869633  0.11040557  0.21097482     0.02400
N1922       N  0.47920070  0.10714206  0.16185201    -0.81300
H1923       H  0.48907058  0.15203223  0.14338563     0.17800
C1924       C  0.43675918  0.10475817  0.19800556    -0.26200
C1925       C  0.42220842  0.08436347  0.20444801     0.35900
C1926       C  0.42889362  0.06958736  0.22521583    -0.20200
C1927       C  0.45071488  0.07547075  0.23867244    -0.25400
C1928       C  0.46582709  0.09581511  0.23161481     0.27200
H1929       H  0.43115271  0.11602425  0.18215741     0.13000
N1930       N  0.40090650  0.07848045  0.18935670    -0.82700
H1931       H  0.45580837  0.06443050  0.25480941     0.17800
N1932       N  0.48822216  0.10164740  0.24515422    -0.81300
H1933       H  0.40702083  0.07545748  0.17109199     0.33500
H1934       H  0.38894156  0.09391413  0.18928549     0.38000
H1935       H  0.49073238  0.08913280  0.25989416     0.33400
H1936       H  0.50330942  0.09908177  0.23305779     0.30100
H1937       H  0.48387340  0.10992878  0.14314267     0.33400
H1938       H  0.49273010  0.09519010  0.16929714     0.30100
H1939       H  0.50913885  0.20139525  0.21502506     0.38000
H1940       H  0.48677300  0.19421368  0.23556680     0.33500
C1941       C  0.28027950  0.07361697  0.43479909    -0.20300
C1942       C  0.26349807  0.06160321  0.41846280     0.36000
C1943       C  0.27290587  0.04959729  0.39722824    -0.26200
C1944       C  0.29864621  0.04894881  0.39262361     0.02400
C1945       C  0.31542587  0.05898927  0.41028655     0.27200
C1946       C  0.30597940  0.07197193  0.43078094    -0.25400
N1947       N  0.23698630  0.06351106  0.42231945    -0.82800
H1948       H  0.26009868  0.04203817  0.38354426     0.13000
C1949       C  0.30775715  0.04126774  0.36784419     0.02400
N1950       N  0.34196360  0.05687787  0.40667428    -0.81300
H1951       H  0.31867126  0.08158476  0.44315457     0.17800
C1952       C  0.32276085  0.05811943  0.35476317    -0.26200
C1953       C  0.33439891  0.05121084  0.33266395     0.35900
C1954       C  0.32985311  0.02743866  0.32247631    -0.20200
C1955       C  0.31298512  0.01129330  0.33432280    -0.25400
C1956       C  0.30220301  0.01781259  0.35732171     0.27200
H1957       H  0.32638937  0.07649981  0.36235921     0.13000
N1958       N  0.35164786  0.06808113  0.32122223    -0.82700
H1959       H  0.30975590  0.99287786  0.32666234     0.17800
N1960       N  0.28663378  0.00041490  0.37045963    -0.81300
H1961       H  0.36603915  0.07157237  0.33392440     0.33500
H1962       H  0.34238539  0.08495308  0.31798487     0.38000
H1963       H  0.28452225  0.98399781  0.36015972     0.33400
H1964       H  0.29587359  0.99551451  0.38692953     0.30100
H1965       H  0.35162889  0.06549983  0.42125781     0.33400
H1966       H  0.34652972  0.03792801  0.40744674     0.30100
H1967       H  0.23268544  0.05340576  0.43841252     0.38000
H1968       H  0.22728851  0.05493096  0.40774355     0.33500
C1969       C  0.47339519  0.00892953  0.04705048    -0.20300
C1970       C  0.48369726  0.99575271  0.06731624     0.36000
C1971       C  0.47181234  0.99624232  0.09066183    -0.26200
C1972       C  0.45000352  0.01027356  0.09442652     0.02400
C1973       C  0.44029891  0.02459344  0.07448884     0.27200
C1974       C  0.45172001  0.02322422  0.05079820    -0.25400
N1975       N  0.50630499  0.98179036  0.06415989    -0.82800
H1976       H  0.47967560  0.98562069  0.10596911     0.13000
C1977       C  0.43795827  0.00999815  0.11948539     0.02400
N1978       N  0.41965039  0.04127263  0.07860832    -0.81300
H1979       H  0.44379596  0.03343493  0.03527600     0.17800
C1980       C  0.44862968  0.02374319  0.13907715    -0.26200
C1981       C  0.43841744  0.02312542  0.16334405     0.35900
C1982       C  0.41661345  0.00913017  0.16790239    -0.20200
C1983       C  0.40620310  0.99511182  0.14836552    -0.25400
C1984       C  0.41690488  0.99495670  0.12436895     0.27200
H1985       H  0.46515807  0.03478354  0.13543521     0.13000
N1986       N  0.44987559  0.03694350  0.18317473    -0.82700
H1987       H  0.38992935  0.98372661  0.15203812     0.17800
N1988       N  0.40722288  0.97865613  0.10538203    -0.81300
H1989       H  0.46541282  0.04675551  0.17664856     0.33500
H1990       H  0.45647709  0.02413177  0.19630942     0.38000
H1991       H  0.39231101  0.96817925  0.11231316     0.33400
H1992       H  0.39994527  0.98955936  0.09099110     0.30100
H1993       H  0.41550338  0.05117796  0.06232869     0.33400
H1994       H  0.40386380  0.03069170  0.08275258     0.30100
H1995       H  0.51955970  0.98885704  0.07658834     0.38000
H1996       H  0.50280576  0.96326728  0.06910265     0.33500
C1997       C  0.42081932  0.98564350  0.33188321    -0.20300
C1998       C  0.41706097  0.96522855  0.34814936     0.36000
C1999       C  0.42816518  0.96529482  0.37205207    -0.26200
C2000       C  0.44216859  0.98579185  0.38058554     0.02400
C2001       C  0.44563392  0.00620547  0.36421562     0.27200
C2002       C  0.43552881  0.00566217  0.34000773    -0.25400
N2003       N  0.40172594  0.94463046  0.34046094    -0.82800
H2004       H  0.42570054  0.94931610  0.38414249     0.13000
C2005       C  0.45303049  0.98581832  0.40648975     0.02400
N2006       N  0.45836518  0.02817213  0.37248621    -0.81300
H2007       H  0.43793688  0.02176898  0.32804587     0.17800
C2008       C  0.47794517  0.99322575  0.41004693    -0.26200
C2009       C  0.48816643  0.99587827  0.43393299     0.35900
C2010       C  0.47417165  0.98893617  0.45519562    -0.20200
C2011       C  0.44947230  0.98082139  0.45179025    -0.25400
C2012       C  0.43868521  0.97969029  0.42779659     0.27200
H2013       H  0.48942622  0.99790363  0.39411255     0.13000
N2014       N  0.51219244  0.00739800  0.43609322    -0.82700
H2015       H  0.43810945  0.97640488  0.46787346     0.17800
N2016       N  0.41283323  0.97338893  0.42532505    -0.81300
H2017       H  0.51031846  0.02345552  0.44697570     0.33500
H2018       H  0.52438464  0.99525119  0.44515390     0.38000
H2019       H  0.41017825  0.95573405  0.43314256     0.33400
H2020       H  0.40241394  0.98622429  0.43570629     0.30100
H2021       H  0.47337216  0.03137286  0.36044971     0.33400
H2022       H  0.44605891  0.04325994  0.37099953     0.30100
H2023       H  0.41061088  0.93596330  0.32540410     0.38000
H2024       H  0.40049713  0.93132315  0.35462745     0.33500
C2025       C  0.57444248  0.26898749  0.57979378    -0.20300
C2026       C  0.59781277  0.27308557  0.59133565     0.36000
C2027       C  0.61803848  0.28055032  0.57698838    -0.26200
C2028       C  0.61546697  0.28408770  0.55138077     0.02400
C2029       C  0.59275517  0.27862284  0.53934127     0.27200
C2030       C  0.57230503  0.27089145  0.55377589    -0.25400
N2031       N  0.60115562  0.26991716  0.61766347    -0.82800
H2032       H  0.63562615  0.28477242  0.58609445     0.13000
C2033       C  0.63561194  0.29755401  0.53897643     0.02400
N2034       N  0.59058614  0.28100930  0.51273187    -0.81300
H2035       H  0.55451172  0.26726622  0.54486906     0.17800
C2036       C  0.65745262  0.28479925  0.53230736    -0.26200
C2037       C  0.67902459  0.29794958  0.52536698     0.35900
C2038       C  0.67845295  0.32430274  0.52549301    -0.20200
C2039       C  0.65629898  0.33680383  0.53202918    -0.25400
C2040       C  0.63495938  0.32373468  0.53894324     0.27200
H2041       H  0.65786260  0.26461987  0.53340264     0.13000
N2042       N  0.70161216  0.28468586  0.51946964    -0.82700
H2043       H  0.65561234  0.35700095  0.53208802     0.17800
N2044       N  0.61315183  0.33689312  0.54759861    -0.81300
H2045       H  0.69930354  0.26556459  0.52248856     0.33500
H2046       H  0.70476986  0.28674077  0.50035825     0.38000
H2047       H  0.61620283  0.35615276  0.54757496     0.33400
H2048       H  0.59868296  0.33365153  0.53496253     0.30100
H2049       H  0.57266224  0.27597702  0.50688303     0.33400
H2050       H  0.59281026  0.29978536  0.50807151     0.30100
H2051       H  0.60704300  0.28692617  0.62515331     0.38000
H2052       H  0.61543354  0.25689198  0.62046894     0.33500
C2053       C  0.57741712  0.07317116  0.72611874    -0.20300
C2054       C  0.58774238  0.09714048  0.72247298     0.36000
C2055       C  0.57247555  0.11676631  0.71475347    -0.26200
C2056       C  0.54696994  0.11314280  0.71057590     0.02400
C2057       C  0.53634028  0.08940534  0.71465925     0.27200
C2058       C  0.55170096  0.06960494  0.72263464    -0.25400
N2059       N  0.61375772  0.10176987  0.72676998    -0.82800
H2060       H  0.58080865  0.13484328  0.71124643     0.13000
C2061       C  0.53275829  0.13374652  0.69897463     0.02400
N2062       N  0.51015742  0.08549254  0.71030936    -0.81300
H2063       H  0.54374058  0.05127443  0.72555263     0.17800
C2064       C  0.52302846  0.12996627  0.67507289    -0.26200
C2065       C  0.51393269  0.14997881  0.66101665     0.35900
C2066       C  0.51461879  0.17430405  0.67114978    -0.20200
C2067       C  0.52288484  0.17795734  0.69564183    -0.25400
C2068       C  0.53218068  0.15782456  0.70967346     0.27200
H2069       H  0.52374724  0.11151578  0.66684237     0.13000
N2070       N  0.50456509  0.14580529  0.63622101    -0.82700
H2071       H  0.52333242  0.19666094  0.70328977     0.17800
N2072       N  0.54193332  0.16179190  0.73431895    -0.81300
H2073       H  0.50602408  0.12698211  0.63132820     0.33500
H2074       H  0.48550729  0.15005037  0.63636110     0.38000
H2075       H  0.54047041  0.18059252  0.73929625     0.33400
H2076       H  0.53071287  0.15181219  0.74673418     0.30100
H2077       H  0.50534980  0.06696140  0.71395605     0.33400
H2078       H  0.50033453  0.09648948  0.72308291     0.30100
H2079       H  0.61534101  0.11568340  0.74034354     0.38000
H2080       H  0.62158082  0.10851404  0.71025108     0.33500
C2081       C  0.42387381  0.23619508  0.57287485    -0.20300
C2082       C  0.42344248  0.21833948  0.55374296     0.36000
C2083       C  0.40039720  0.21170650  0.54318463    -0.26200
C2084       C  0.37817178  0.22276876  0.55158503     0.02400
C2085       C  0.37896105  0.24236290  0.56893395     0.27200
C2086       C  0.40201999  0.24918265  0.57917505    -0.25400
N2087       N  0.44607223  0.20608007  0.54622928    -0.82800
H2088       H  0.39953022  0.19676375  0.52960985     0.13000
C2089       C  0.35436943  0.21083830  0.54513208     0.02400
N2090       N  0.35625533  0.25423879  0.57695107    -0.81300
H2091       H  0.40284451  0.26387530  0.59296643     0.17800
C2092       C  0.34408793  0.19413120  0.56230873    -0.26200
C2093       C  0.32422772  0.17869243  0.55553951     0.35900
C2094       C  0.31401232  0.18050227  0.53135809    -0.20200
C2095       C  0.32316328  0.19864905  0.51482763    -0.25400
C2096       C  0.34359652  0.21364463  0.52141357     0.27200
H2097       H  0.35244724  0.19209014  0.58061606     0.13000
N2098       N  0.31505851  0.16070479  0.57301514    -0.82700
H2099       H  0.31548052  0.20000029  0.49618579     0.17800
N2100       N  0.35416729  0.23087346  0.50385392    -0.81300
H2101       H  0.30953961  0.17018082  0.58913484     0.33500
H2102       H  0.32981482  0.14884490  0.57782803     0.38000
H2103       H  0.34428642  0.23039982  0.48704682     0.33400
H2104       H  0.35189664  0.24881921  0.51114388     0.30100
H2105       H  0.36013341  0.26825960  0.58992883     0.33400
H2106       H  0.34839028  0.26307002  0.56143814     0.30100
H2107       H  0.45773891  0.21958330  0.53840317     0.38000
H2108       H  0.44242266  0.19303295  0.53221472     0.33500
C2109       C  0.47873436  0.32526112  0.67190975    -0.20300
C2110       C  0.47553704  0.34925413  0.66131169     0.36000
C2111       C  0.46841484  0.36909000  0.67657779    -0.26200
C2112       C  0.46474406  0.36564985  0.70212635     0.02400
C2113       C  0.46913289  0.34213451  0.71301743     0.27200
C2114       C  0.47651122  0.32216085  0.69777647    -0.25400
N2115       N  0.47953905  0.35348389  0.63512712    -0.82800
H2116       H  0.46479189  0.38720916  0.66834433     0.13000
C2117       C  0.45272510  0.38604880  0.71597749     0.02400
N2118       N  0.46540005  0.33857180  0.73930174    -0.81300
H2119       H  0.47973973  0.30398106  0.70597503     0.17800
C2120       C  0.42860044  0.38199121  0.72500898    -0.26200
C2121       C  0.41385050  0.40191966  0.73301265     0.35900
C2122       C  0.42339409  0.42639917  0.73150055    -0.20200
C2123       C  0.44817534  0.43034191  0.72420309    -0.25400
C2124       C  0.46301895  0.41024462  0.71630609     0.27200
H2125       H  0.42082041  0.36334375  0.72467346     0.13000
N2126       N  0.38916420  0.39742452  0.74250637    -0.82700
H2127       H  0.45552431  0.44915290  0.72362810     0.17800
N2128       N  0.48809167  0.41428978  0.70769278    -0.81300
H2129       H  0.38460144  0.37851132  0.74120891     0.33500
H2130       H  0.38951796  0.40159778  0.76152467     0.38000
H2131       H  0.49273961  0.43318250  0.70890951     0.33400
H2132       H  0.50010011  0.40475086  0.71977287     0.30100
H2133       H  0.46911788  0.32007976  0.74429093     0.33400
H2134       H  0.47845191  0.34962935  0.74865030     0.30100
H2135       H  0.49856665  0.35083612  0.63167743     0.38000
H2136       H  0.47560375  0.37198955  0.63035599     0.33500
C2137       C  0.51558363  0.33033410  0.58127857    -0.20300
C2138       C  0.49599874  0.33976062  0.56622407     0.36000
C2139       C  0.49792322  0.36379957  0.55583165    -0.26200
C2140       C  0.51912397  0.37875085  0.55952721     0.02400
C2141       C  0.53895735  0.36919223  0.57413709     0.27200
C2142       C  0.53682919  0.34527946  0.58509369    -0.25400
N2143       N  0.47352042  0.32556037  0.56267857    -0.82800
H2144       H  0.48243708  0.37117309  0.54509248     0.13000
C2145       C  0.51954677  0.40448746  0.54841312     0.02400
N2146       N  0.56114288  0.38377277  0.57783660    -0.81300
H2147       H  0.55179330  0.33828534  0.59678594     0.17800
C2148       C  0.52403751  0.42547530  0.56357355    -0.26200
C2149       C  0.52189617  0.44994133  0.55405971     0.35900
C2150       C  0.51443362  0.45371389  0.52913580    -0.20200
C2151       C  0.51081887  0.43279067  0.51381906    -0.25400
C2152       C  0.51368277  0.40835875  0.52298999     0.27200
H2153       H  0.52863871  0.42291890  0.58307236     0.13000
N2154       N  0.52724550  0.47082438  0.56977386    -0.82700
H2155       H  0.50552701  0.43559348  0.49451482     0.17800
N2156       N  0.51055059  0.38740892  0.50656150    -0.81300
H2157       H  0.51561313  0.46978520  0.58538481     0.33500
H2158       H  0.54569307  0.46913438  0.57593742     0.38000
H2159       H  0.50620257  0.39339737  0.48852292     0.33400
H2160       H  0.52774633  0.37820374  0.50542996     0.30100
H2161       H  0.57388874  0.37417365  0.58908751     0.33400
H2162       H  0.56967732  0.38601666  0.56045696     0.30100
H2163       H  0.47795576  0.31039352  0.55126926     0.38000
H2164       H  0.46019540  0.33598256  0.55291188     0.33500
C2165       C  0.48930881  0.04702750  0.52622042    -0.20300
C2166       C  0.49437970  0.06805708  0.51117103     0.36000
C2167       C  0.49202493  0.09224886  0.52118098    -0.26200
C2168       C  0.48568553  0.09612586  0.54630970     0.02400
C2169       C  0.48072895  0.07504627  0.56143348     0.27200
C2170       C  0.48214561  0.05084249  0.55111240    -0.25400
N2171       N  0.50227717  0.06471373  0.48577429    -0.82800
H2172       H  0.49554306  0.10823330  0.50935450     0.13000
C2173       C  0.48491420  0.12224291  0.55656454     0.02400
N2174       N  0.47483548  0.07822813  0.58737866    -0.81300
H2175       H  0.47803360  0.03491696  0.56271365     0.17800
C2176       C  0.46383283  0.13058234  0.56982051    -0.26200
C2177       C  0.46311379  0.15444116  0.58081168     0.35900
C2178       C  0.48345357  0.17090988  0.57799633    -0.20200
C2179       C  0.50403554  0.16307430  0.56375375    -0.25400
C2180       C  0.50523753  0.13884254  0.55350398     0.27200
H2181       H  0.44790688  0.11834717  0.57199878     0.13000
N2182       N  0.44166596  0.16183931  0.59494657    -0.82700
H2183       H  0.51995958  0.17536397  0.56188057     0.17800
N2184       N  0.52747748  0.13071314  0.54086524    -0.81300
H2185       H  0.43929918  0.14902770  0.60944006     0.33500
H2186       H  0.42601969  0.16080895  0.58331834     0.38000
H2187       H  0.54068421  0.14503792  0.54023998     0.33400
H2188       H  0.53538642  0.11632610  0.55141917     0.30100
H2189       H  0.47170079  0.06095920  0.59587266     0.33400
H2190       H  0.49050846  0.08591318  0.59607863     0.30100
H2191       H  0.51958360  0.05566365  0.48609245     0.38000
H2192       H  0.50513096  0.08195505  0.47713274     0.33500
C2193       C  0.25643222  0.22709457  0.70397601    -0.20300
C2194       C  0.23393968  0.22508000  0.69023176     0.36000
C2195       C  0.23402515  0.21506799  0.66592170    -0.26200
C2196       C  0.25622292  0.20704616  0.65460835     0.02400
C2197       C  0.27881914  0.20927861  0.66784328     0.27200
C2198       C  0.27873761  0.21933298  0.69215204    -0.25400
N2199       N  0.21082068  0.23323957  0.70083218    -0.82800
H2200       H  0.21652321  0.21314802  0.65595650     0.13000
C2201       C  0.25525330  0.19375715  0.63016069     0.02400
N2202       N  0.30170986  0.20062302  0.65680902    -0.81300
H2203       H  0.29606904  0.21948426  0.70243398     0.17800
C2204       C  0.26084923  0.20632625  0.60785918    -0.26200
C2205       C  0.26028277  0.19381674  0.58461781     0.35900
C2206       C  0.25448307  0.16808056  0.58380186    -0.20200
C2207       C  0.24923289  0.15561231  0.60625003    -0.25400
C2208       C  0.24943405  0.16815771  0.62930209     0.27200
H2209       H  0.26566331  0.22592801  0.60862150     0.13000
N2210       N  0.26670267  0.20686603  0.56212465    -0.82700
H2211       H  0.24471362  0.13592355  0.60577861     0.17800
N2212       N  0.24371714  0.15500843  0.65194923    -0.81300
H2213       H  0.27209451  0.22515675  0.56614470     0.33500
H2214       H  0.25058325  0.20817262  0.55121002     0.38000
H2215       H  0.23953491  0.13634144  0.64816580     0.33400
H2216       H  0.25977992  0.15494422  0.66302622     0.30100
H2217       H  0.31653712  0.20285223  0.66927530     0.33400
H2218       H  0.30005926  0.18142695  0.65386579     0.30100
H2219       H  0.19854079  0.21810128  0.70077036     0.38000
H2220       H  0.20332404  0.24705790  0.68927775     0.33500
C2221       C  0.17336303  0.08172637  0.74606895    -0.20300
C2222       C  0.19702612  0.08285988  0.75790009     0.36000
C2223       C  0.20919115  0.10606466  0.76038747    -0.26200
C2224       C  0.19862981  0.12796744  0.75070563     0.02400
C2225       C  0.17581068  0.12670815  0.73774558     0.27200
C2226       C  0.16319313  0.10383582  0.73608146    -0.25400
N2227       N  0.20853675  0.06066783  0.76763517    -0.82800
H2228       H  0.22704470  0.10711120  0.76984440     0.13000
C2229       C  0.21183752  0.15212833  0.75347185     0.02400
N2230       N  0.16588404  0.14854126  0.72569170    -0.81300
H2231       H  0.14530561  0.10331338  0.72665722     0.17800
C2232       C  0.23216764  0.15753933  0.73813016    -0.26200
C2233       C  0.24371550  0.18113186  0.73890440     0.35900
C2234       C  0.23225212  0.20104264  0.75233225    -0.20200
C2235       C  0.21597673  0.19332609  0.77166464    -0.25400
C2236       C  0.20488440  0.16954588  0.77177560     0.27200
H2237       H  0.23957520  0.14303640  0.72614644     0.13000
N2238       N  0.26841936  0.18358021  0.72901357    -0.82700
H2239       H  0.21076106  0.20604268  0.78629860     0.17800
N2240       N  0.18693996  0.16296913  0.79059336    -0.81300
H2241       H  0.27437936  0.16700876  0.72061593     0.33500
H2242       H  0.28048925  0.18699102  0.74395480     0.38000
H2243       H  0.18437265  0.17773676  0.80305614     0.33400
H2244       H  0.16972126  0.16011716  0.78192004     0.30100
H2245       H  0.14946138  0.14426114  0.71605631     0.33400
H2246       H  0.16092149  0.16128103  0.73951516     0.30100
H2247       H  0.21304813  0.04929331  0.75244801     0.38000
H2248       H  0.22541155  0.06492437  0.77645772     0.33500
C2249       C  0.33038368  0.42017592  0.76279162    -0.20300
C2250       C  0.32324806  0.40836021  0.74039441     0.36000
C2251       C  0.31246417  0.38447663  0.74122604    -0.26200
C2252       C  0.30790766  0.37232560  0.76398620     0.02400
C2253       C  0.31433335  0.38456369  0.78645920     0.27200
C2254       C  0.32602180  0.40812752  0.78558597    -0.25400
N2255       N  0.32822406  0.42007747  0.71679895    -0.82800
H2256       H  0.30792583  0.37507410  0.72393362     0.13000
C2257       C  0.29678715  0.34671113  0.76367274     0.02400
N2258       N  0.30883708  0.37311037  0.81003681    -0.81300
H2259       H  0.33168736  0.41719473  0.80273252     0.17800
C2260       C  0.30888858  0.32688788  0.77604980    -0.26200
C2261       C  0.29947995  0.30230958  0.77497386     0.35900
C2262       C  0.27784045  0.29742978  0.76083666    -0.20200
C2263       C  0.26574368  0.31717976  0.74859322    -0.25400
C2264       C  0.27473504  0.34172348  0.75008961     0.27200
H2265       H  0.32589679  0.33056298  0.78633929     0.13000
N2266       N  0.31180614  0.28237917  0.78801191    -0.82700
H2267       H  0.24876356  0.31341306  0.73825829     0.17800
N2268       N  0.26137408  0.36167336  0.73807786    -0.81300
H2269       H  0.32755229  0.28906508  0.79738736     0.33500
H2270       H  0.29959339  0.27580492  0.80168829     0.38000
H2271       H  0.24564182  0.35486389  0.72876918     0.33400
H2272       H  0.25484120  0.37364333  0.75202274     0.30100
H2273       H  0.31479314  0.38447480  0.82471933     0.33400
H2274       H  0.28941928  0.37189394  0.81151118     0.30100
H2275       H  0.31686579  0.43590426  0.71554821     0.38000
H2276       H  0.32295351  0.40841601  0.70209368     0.33500
C2277       C  0.29610166  0.26229611  0.72419998    -0.20300
C2278       C  0.29851435  0.27501526  0.70134523     0.36000
C2279       C  0.32234239  0.27721935  0.69028982    -0.26200
C2280       C  0.34368708  0.26626108  0.70121640     0.02400
C2281       C  0.34100203  0.25341975  0.72408333     0.27200
C2282       C  0.31742294  0.25204408  0.73546879    -0.25400
N2283       N  0.27673849  0.28467751  0.68899783    -0.82800
H2284       H  0.32421443  0.28721384  0.67285038     0.13000
C2285       C  0.36843709  0.26716769  0.68809444     0.02400
N2286       N  0.36205150  0.24104498  0.73528011    -0.81300
H2287       H  0.31539163  0.24196812  0.75286273     0.17800
C2288       C  0.39016130  0.27413416  0.70121816    -0.26200
C2289       C  0.41404061  0.27283911  0.69010044     0.35900
C2290       C  0.41619471  0.26568157  0.66490558    -0.20200
C2291       C  0.39448521  0.25934967  0.65169303    -0.25400
C2292       C  0.37079809  0.25969545  0.66294596     0.27200
H2293       H  0.38852920  0.28017564  0.72041429     0.13000
N2294       N  0.43593348  0.27909264  0.70421287    -0.82700
H2295       H  0.39613979  0.25285932  0.63273122     0.17800
N2296       N  0.34928161  0.25164164  0.64910526    -0.81300
H2297       H  0.43105043  0.28492461  0.72215693     0.33500
H2298       H  0.44647359  0.26281028  0.70640088     0.38000
H2299       H  0.35423352  0.24662563  0.63093805     0.33400
H2300       H  0.34267345  0.23546154  0.65762336     0.30100
H2301       H  0.35695744  0.23259460  0.75208816     0.33400
H2302       H  0.36755669  0.22669769  0.72327431     0.30100
H2303       H  0.26948197  0.29900988  0.70000331     0.38000
H2304       H  0.28159822  0.29271578  0.67193311     0.33500
C2305       C  0.26599047  0.41571387  0.92351510    -0.20300
C2306       C  0.26938153  0.40439470  0.89994300     0.36000
C2307       C  0.27666342  0.41907682  0.87964235    -0.26200
C2308       C  0.28063344  0.44470056  0.88237872     0.02400
C2309       C  0.27583916  0.45634971  0.90542966     0.27200
C2310       C  0.26815568  0.44171824  0.92579218    -0.25400
N2311       N  0.26577551  0.37800437  0.89675046    -0.82800
H2312       H  0.28064309  0.41030648  0.86186538     0.13000
C2313       C  0.29537497  0.45721308  0.86290986     0.02400
N2314       N  0.27966301  0.48273216  0.90824830    -0.81300
H2315       H  0.26511262  0.45042196  0.94376817     0.17800
C2316       C  0.28382870  0.46996434  0.84314960    -0.26200
C2317       C  0.29809958  0.47922315  0.82303752     0.35900
C2318       C  0.32428187  0.47562942  0.82308742    -0.20200
C2319       C  0.33545427  0.46307638  0.84329699    -0.25400
C2320       C  0.32136006  0.45386277  0.86304008     0.27200
H2321       H  0.26370350  0.47206959  0.84313360     0.13000
N2322       N  0.28608982  0.49171692  0.80257923    -0.82700
H2323       H  0.35548569  0.46031218  0.84388070     0.17800
N2324       N  0.33323947  0.44036161  0.88300737    -0.81300
H2325       H  0.26686529  0.49308267  0.80569454     0.33500
H2326       H  0.28837086  0.48053644  0.78676699     0.38000
H2327       H  0.35246220  0.43881939  0.87995859     0.33400
H2328       H  0.33103605  0.45077626  0.89933069     0.30100
H2329       H  0.27510736  0.48838134  0.92633932     0.33400
H2330       H  0.29871662  0.48627165  0.90597702     0.30100
H2331       H  0.24684784  0.37430274  0.89969612     0.38000
H2332       H  0.26964046  0.37264653  0.87840948     0.33500
C2333       C  0.22494528  0.43079986  0.06652514    -0.20300
C2334       C  0.24337578  0.44078988  0.08241367     0.36000
C2335       C  0.23595484  0.45386399  0.10382431    -0.26200
C2336       C  0.21060358  0.45743481  0.10902896     0.02400
C2337       C  0.19230313  0.44940998  0.09195371     0.27200
C2338       C  0.19974748  0.43603701  0.07079478    -0.25400
N2339       N  0.26938197  0.43609463  0.07766381    -0.82800
H2340       H  0.24982913  0.46026772  0.11705996     0.13000
C2341       C  0.20312982  0.46650005  0.13375945     0.02400
N2342       N  0.16626975  0.45402454  0.09672486    -0.81300
H2343       H  0.18589498  0.42883048  0.05813374     0.17800
C2344       C  0.19528472  0.49124364  0.13660106    -0.26200
C2345       C  0.18383276  0.49901126  0.15880913     0.35900
C2346       C  0.17997672  0.48147952  0.17799305    -0.20200
C2347       C  0.19006438  0.45753735  0.17604229    -0.25400
C2348       C  0.20133878  0.44965141  0.15384956     0.27200
H2349       H  0.19702833  0.50407944  0.12109851     0.13000
N2350       N  0.17472149  0.52411078  0.16142310    -0.82700
H2351       H  0.18811074  0.44470167  0.19142734     0.17800
N2352       N  0.20995533  0.42436235  0.15119245    -0.81300
H2353       H  0.17852957  0.53446052  0.14535476     0.33500
H2354       H  0.18473331  0.53247057  0.17591636     0.38000
H2355       H  0.20731057  0.41446298  0.16777728     0.33400
H2356       H  0.19879354  0.41568744  0.13775973     0.30100
H2357       H  0.15529873  0.44725850  0.08208906     0.33400
H2358       H  0.16124395  0.44389976  0.11259782     0.30100
H2359       H  0.27405827  0.44533884  0.06116295     0.38000
H2360       H  0.28043105  0.44394734  0.09168553     0.33500
C2361       C  0.32441339  0.33061310  0.02663057    -0.20300
C2362       C  0.32344186  0.30529750  0.03364146     0.36000
C2363       C  0.34528151  0.29367231  0.04237540    -0.26200
C2364       C  0.36790665  0.30674826  0.04351103     0.02400
C2365       C  0.36916421  0.33161589  0.03537982     0.27200
C2366       C  0.34736570  0.34331781  0.02700036    -0.25400
N2367       N  0.30022849  0.29191135  0.03308188    -0.82800
H2368       H  0.34458614  0.27460425  0.04903632     0.13000
C2369       C  0.38909019  0.29563119  0.05689552     0.02400
N2370       N  0.39239014  0.34503623  0.03639328    -0.81300
H2371       H  0.34822169  0.36263636  0.02108506     0.17800
C2372       C  0.40996437  0.28676198  0.04382150    -0.26200
C2373       C  0.43081219  0.27717306  0.05667762     0.35900
C2374       C  0.43053791  0.27686382  0.08301244    -0.20200
C2375       C  0.40933177  0.28567275  0.09578696    -0.25400
C2376       C  0.38872575  0.29513205  0.08303840     0.27200
H2377       H  0.40996814  0.28746158  0.02363627     0.13000
N2378       N  0.45201328  0.26783964  0.04314707    -0.82700
H2379       H  0.40866140  0.28515074  0.11596641     0.17800
N2380       N  0.36741366  0.30442503  0.09651115    -0.81300
H2381       H  0.44900764  0.26931094  0.02393900     0.33500
H2382       H  0.46723441  0.27926034  0.04727958     0.38000
H2383       H  0.36994621  0.30229393  0.11572569     0.33400
H2384       H  0.36615866  0.32360017  0.09317608     0.30100
H2385       H  0.39013640  0.36312663  0.02942428     0.33400
H2386       H  0.39741660  0.34690127  0.05513057     0.30100
H2387       H  0.29529558  0.28948514  0.01438251     0.38000
H2388       H  0.30253749  0.27400717  0.04045566     0.33500
C2389       C  0.04293614  0.47227401  0.00855166    -0.20300
C2390       C  0.06511523  0.48564668  0.00297691     0.36000
C2391       C  0.08838956  0.47378937  0.00503956    -0.26200
C2392       C  0.09056576  0.44833680  0.01086119     0.02400
C2393       C  0.06845731  0.43483910  0.01621492     0.27200
C2394       C  0.04505434  0.44706870  0.01548849    -0.25400
N2395       N  0.06489606  0.51076639  0.99356079    -0.82800
H2396       H  0.10503664  0.48459562  0.00128447     0.13000
C2397       C  0.11602118  0.43626238  0.01067252     0.02400
N2398       N  0.06968641  0.40862802  0.02172408    -0.81300
H2399       H  0.02828821  0.43661506  0.01957665     0.17800
C2400       C  0.12340350  0.42069786  0.03046203    -0.26200
C2401       C  0.14680582  0.40867661  0.03057089     0.35900
C2402       C  0.16420313  0.41327830  0.01127510    -0.20200
C2403       C  0.15717137  0.42940452  0.99184915    -0.25400
C2404       C  0.13316422  0.44029264  0.99092177     0.27200
H2405       H  0.11086781  0.41765785  0.04599456     0.13000
N2406       N  0.15275633  0.39182924  0.05045203    -0.82700
H2407       H  0.17003667  0.43258011  0.97660433     0.17800
N2408       N  0.12591260  0.45479445  0.96954924    -0.81300
H2409       H  0.13940406  0.37763752  0.05048114     0.33500
H2410       H  0.15114079  0.40145525  0.06732108     0.38000
H2411       H  0.14055871  0.45597018  0.95672839     0.33400
H2412       H  0.11139099  0.44531512  0.96062252     0.30100
H2413       H  0.05188281  0.40153063  0.02532155     0.33400
H2414       H  0.07622062  0.39953054  0.00576135     0.30100
H2415       H  0.04688890  0.51767066  0.99094739     0.38000
H2416       H  0.07380633  0.52215243  0.00661616     0.33500
C2417       C  0.45073323  0.47108585  0.99553231    -0.20300
C2418       C  0.42885152  0.48416216  0.00229982     0.36000
C2419       C  0.40539534  0.47262806  0.99992169    -0.26200
C2420       C  0.40317099  0.44786182  0.99177498     0.02400
C2421       C  0.42510627  0.43443065  0.98565963     0.27200
C2422       C  0.44864849  0.44629656  0.98724633    -0.25400
N2423       N  0.43061178  0.50909619  0.01197566    -0.82800
H2424       H  0.38866970  0.48294477  0.00476149     0.13000
C2425       C  0.37769641  0.43637756  0.99038202     0.02400
N2426       N  0.42342136  0.40870086  0.97836506    -0.81300
H2427       H  0.46544035  0.43611521  0.98238211     0.17800
C2428       C  0.36853044  0.42722727  0.96756494    -0.26200
C2429       C  0.34431269  0.41691453  0.96564816     0.35900
C2430       C  0.32864066  0.41643117  0.98682349    -0.20200
C2431       C  0.33769662  0.42589258  0.00949377    -0.25400
C2432       C  0.36212204  0.43538968  0.01161478     0.27200
H2433       H  0.38033821  0.42814099  0.95120152     0.13000
N2434       N  0.33539975  0.40751301  0.94218025    -0.82700
H2435       H  0.32603038  0.42475397  0.02595878     0.17800
N2436       N  0.37142818  0.44348502  0.03542061    -0.81300
H2437       H  0.34878436  0.41021696  0.92826419     0.33500
H2438       H  0.33321104  0.38823449  0.94391856     0.38000
H2439       H  0.35775510  0.44145857  0.04917400     0.33400
H2440       H  0.38614282  0.43161381  0.04035642     0.30100
H2441       H  0.44117911  0.40146916  0.97464926     0.33400
H2442       H  0.41647173  0.39872211  0.99360060     0.30100
H2443       H  0.44028492  0.50819725  0.02890093     0.38000
H2444       H  0.41289113  0.51622990  0.01598025     0.33500
C2445       C  0.23801414  0.31973290  0.92619041    -0.20300
C2446       C  0.25928124  0.30574453  0.91897373     0.36000
C2447       C  0.25987816  0.29438623  0.89526138    -0.26200
C2448       C  0.23944987  0.29605041  0.87899038     0.02400
C2449       C  0.21735020  0.30786376  0.88714608     0.27200
C2450       C  0.21706097  0.32006479  0.91040053    -0.25400
N2451       N  0.28082289  0.30450792  0.93493898    -0.82800
H2452       H  0.27669623  0.28501408  0.88902394     0.13000
C2453       C  0.24237130  0.28801235  0.85258998     0.02400
N2454       N  0.19532141  0.30742289  0.87178524    -0.81300
H2455       H  0.20055167  0.33031933  0.91605501     0.17800
C2456       C  0.24011562  0.26284559  0.84596017    -0.26200
C2457       C  0.24234409  0.25511855  0.82086021     0.35900
C2458       C  0.24568078  0.27306479  0.80166453    -0.20200
C2459       C  0.24847306  0.29824459  0.80888138    -0.25400
C2460       C  0.24760010  0.30571419  0.83396535     0.27200
H2461       H  0.23681604  0.24917593  0.86045763     0.13000
N2462       N  0.24153186  0.22903501  0.81488898    -0.82700
H2463       H  0.24991577  0.31266796  0.79503010     0.17800
N2464       N  0.25244506  0.33125259  0.84063714    -0.81300
H2465       H  0.23888368  0.21831779  0.83094584     0.33500
H2466       H  0.25896711  0.22405698  0.80764879     0.38000
H2467       H  0.25693079  0.34173342  0.82484142     0.33400
H2468       H  0.23607082  0.33896995  0.84786328     0.30100
H2469       H  0.18050205  0.31641651  0.88076839     0.33400
H2470       H  0.19888623  0.31753469  0.85554826     0.30100
H2471       H  0.27588272  0.29400401  0.95059056     0.38000
H2472       H  0.29531793  0.29474824  0.92623799     0.33500
C2473       C  0.17025614  0.41867234  0.23541919    -0.20300
C2474       C  0.16582401  0.40039583  0.21685134     0.36000
C2475       C  0.17788343  0.37708069  0.21843943    -0.26200
C2476       C  0.19253563  0.37053838  0.23920578     0.02400
C2477       C  0.19622516  0.38857998  0.25816744     0.27200
C2478       C  0.18593200  0.41263569  0.25551936    -0.25400
N2479       N  0.14827120  0.40500779  0.19703450    -0.82800
H2480       H  0.17526179  0.36365915  0.20358919     0.13000
C2481       C  0.20362693  0.34479880  0.24091187     0.02400
N2482       N  0.20943305  0.38213813  0.28061879    -0.81300
H2483       H  0.18868823  0.42618644  0.27024470     0.17800
C2484       C  0.22853824  0.34189368  0.24866319    -0.26200
C2485       C  0.23929942  0.31817235  0.25175523     0.35900
C2486       C  0.22600616  0.29675617  0.24415850    -0.20200
C2487       C  0.20120633  0.29947293  0.23611879    -0.25400
C2488       C  0.18957082  0.32308659  0.23538741     0.27200
H2489       H  0.23960195  0.35821744  0.25294094     0.13000
N2490       N  0.26293153  0.31571528  0.26428544    -0.82700
H2491       H  0.19057212  0.28305787  0.23123269     0.17800
N2492       N  0.16337623  0.32495646  0.22978049    -0.81300
H2493       H  0.26952102  0.33312229  0.27002710     0.33500
H2494       H  0.27595522  0.30889520  0.25161373     0.38000
H2495       H  0.15579742  0.30732601  0.22638203     0.33400
H2496       H  0.15443483  0.33186624  0.24568058     0.30100
H2497       H  0.21039002  0.39740103  0.29271027     0.33400
H2498       H  0.19907690  0.36840285  0.28977776     0.30100
H2499       H  0.15516751  0.41931091  0.18583973     0.38000
H2500       H  0.14657221  0.38935210  0.18554244     0.33500
C2501       C  0.24087101  0.16502189  0.41862652    -0.20300
C2502       C  0.23806966  0.19123492  0.41684745     0.36000
C2503       C  0.23712292  0.20264136  0.39306938    -0.26200
C2504       C  0.23901890  0.18849398  0.37105143     0.02400
C2505       C  0.24180310  0.16245896  0.37295656     0.27200
C2506       C  0.24240281  0.15102245  0.39647950    -0.25400
N2507       N  0.23562258  0.20613981  0.43898306    -0.82800
H2508       H  0.23507562  0.22270078  0.39166585     0.13000
C2509       C  0.23961918  0.20115235  0.34621475     0.02400
N2510       N  0.24494308  0.14758411  0.35099603    -0.81300
H2511       H  0.24479459  0.13096310  0.39735205     0.17800
C2512       C  0.25867741  0.21832207  0.34108631    -0.26200
C2513       C  0.26076856  0.22964561  0.31747703     0.35900
C2514       C  0.24364315  0.22350284  0.29837825    -0.20200
C2515       C  0.22434796  0.20661203  0.30360520    -0.25400
C2516       C  0.22205443  0.19566646  0.32736740     0.27200
H2517       H  0.27217543  0.22266377  0.35549735     0.13000
N2518       N  0.28037080  0.24729305  0.31269201    -0.82700
H2519       H  0.21101342  0.20179958  0.28927351     0.17800
N2520       N  0.20161874  0.17925520  0.33243162    -0.81300
H2521       H  0.29156198  0.24961446  0.32849586     0.33500
H2522       H  0.27200817  0.26456724  0.30912431     0.38000
H2523       H  0.18502786  0.18908158  0.32926389     0.33400
H2524       H  0.20239709  0.16452431  0.31969016     0.30100
H2525       H  0.26207114  0.13827755  0.35232638     0.33400
H2526       H  0.23080712  0.13416611  0.35070606     0.30100
H2527       H  0.25294762  0.20619108  0.44795899     0.38000
H2528       H  0.23186045  0.22470955  0.43433013     0.33500
C2529       C  0.29886437  0.24151890  0.22605769    -0.20300
C2530       C  0.31876006  0.25698674  0.23368756     0.36000
C2531       C  0.34230661  0.25448926  0.22237074    -0.26200
C2532       C  0.34686093  0.23601624  0.20439013     0.02400
C2533       C  0.32736866  0.21935624  0.19818191     0.27200
C2534       C  0.30344279  0.22256111  0.20864215    -0.25400
N2535       N  0.31490296  0.27526531  0.25292100    -0.82800
H2536       H  0.35721938  0.26708119  0.22759286     0.13000
C2537       C  0.37208325  0.23474884  0.19241638     0.02400
N2538       N  0.33198559  0.19870173  0.18190081    -0.81300
H2539       H  0.28851611  0.20996841  0.20347235     0.17800
C2540       C  0.39373325  0.23453367  0.20734443    -0.26200
C2541       C  0.41786931  0.23515606  0.19671592     0.35900
C2542       C  0.42055208  0.23572496  0.17054324    -0.20200
C2543       C  0.39879761  0.23581992  0.15572375    -0.25400
C2544       C  0.37484843  0.23577672  0.16632920     0.27200
H2545       H  0.39177135  0.23397324  0.22743556     0.13000
N2546       N  0.43955361  0.23493002  0.21240746    -0.82700
H2547       H  0.40026457  0.23689044  0.13560233     0.17800
N2548       N  0.35340748  0.23800463  0.15048883    -0.81300
H2549       H  0.44856711  0.21799127  0.20914213     0.33500
H2550       H  0.43440768  0.23489561  0.23120034     0.38000
H2551       H  0.35503952  0.25453886  0.14029520     0.33400
H2552       H  0.35366514  0.22313335  0.13787463     0.30100
H2553       H  0.32803572  0.18231335  0.19168742     0.33400
H2554       H  0.31948963  0.19989569  0.16695986     0.30100
H2555       H  0.31081095  0.26572815  0.26941981     0.38000
H2556       H  0.33127203  0.28531433  0.25622560     0.33500
C2557       C  0.27905876  0.20394706  0.26110952    -0.20300
C2558       C  0.26711747  0.18243474  0.25177678     0.36000
C2559       C  0.27882873  0.15900764  0.25397762    -0.26200
C2560       C  0.30229688  0.15647434  0.26539712     0.02400
C2561       C  0.31405675  0.17800976  0.27517594     0.27200
C2562       C  0.30241126  0.20155039  0.27273340    -0.25400
N2563       N  0.24316765  0.18456654  0.23982662    -0.82800
H2564       H  0.26986588  0.14268090  0.24616787     0.13000
C2565       C  0.31487292  0.13145154  0.26555677     0.02400
N2566       N  0.33772535  0.17584584  0.28763926    -0.81300
H2567       H  0.31153161  0.21806700  0.27991033     0.17800
C2568       C  0.33866199  0.12906021  0.25488477    -0.26200
C2569       C  0.35103195  0.10589025  0.25386115     0.35900
C2570       C  0.33909474  0.08421622  0.26308852    -0.20200
C2571       C  0.31502639  0.08642122  0.27323626    -0.25400
C2572       C  0.30303541  0.10987539  0.27508824     0.27200
H2573       H  0.34758428  0.14541087  0.24707307     0.13000
N2574       N  0.37526818  0.10420934  0.24245977    -0.82700
H2575       H  0.30589341  0.06989849  0.28041077     0.17800
N2576       N  0.27902280  0.11192378  0.28686537    -0.81300
H2577       H  0.38040438  0.12131088  0.23465127     0.33500
H2578       H  0.38824822  0.10062708  0.25657253     0.38000
H2579       H  0.27293260  0.09445138  0.29298991     0.33400
H2580       H  0.28121071  0.12295503  0.30278919     0.30100
H2581       H  0.34386360  0.19332328  0.29371156     0.33400
H2582       H  0.33498799  0.16502622  0.30361615     0.30100
H2583       H  0.24551075  0.19513812  0.22362460     0.38000
H2584       H  0.23674296  0.16705169  0.23418157     0.33500
C2585       C  0.26384353  0.33908405  0.08648592    -0.20300
C2586       C  0.26415763  0.35275963  0.10912613     0.36000
C2587       C  0.26516499  0.33997538  0.13214641    -0.26200
C2588       C  0.26573515  0.31378190  0.13334104     0.02400
C2589       C  0.26600360  0.30016572  0.11075869     0.27200
C2590       C  0.26481785  0.31289147  0.08773190    -0.25400
N2591       N  0.26247007  0.37953183  0.10883811    -0.82800
H2592       H  0.26461620  0.35053656  0.14935508     0.13000
C2593       C  0.26487302  0.30091973  0.15827843     0.02400
N2594       N  0.26748596  0.27340036  0.11127966    -0.81300
H2595       H  0.26454438  0.30222467  0.07059485     0.17800
C2596       C  0.24632249  0.28300409  0.16296372    -0.26200
C2597       C  0.24441623  0.27090898  0.18624647     0.35900
C2598       C  0.26098325  0.27721486  0.20578624    -0.20200
C2599       C  0.27990462  0.29472917  0.20094690    -0.25400
C2600       C  0.28207943  0.30652623  0.17748331     0.27200
H2601       H  0.23308289  0.27851464  0.14837024     0.13000
N2602       N  0.22622072  0.25154390  0.18981959    -0.82700
H2603       H  0.29325502  0.29919039  0.21531273     0.17800
N2604       N  0.30191454  0.32397825  0.17299778    -0.81300
H2605       H  0.21629583  0.24831267  0.17334517     0.33500
H2606       H  0.21319263  0.25782043  0.20283491     0.38000
H2607       H  0.31294293  0.32612342  0.18894237     0.33400
H2608       H  0.31346785  0.31636191  0.15924788     0.30100
H2609       H  0.26742660  0.26615622  0.09318482     0.33400
H2610       H  0.28468917  0.26857517  0.11916991     0.30100
H2611       H  0.24474996  0.38427213  0.10212684     0.38000
H2612       H  0.26354997  0.38671924  0.12692485     0.33500
C2613       C  0.93080196  0.26869944  0.42633369    -0.20300
C2614       C  0.90944684  0.25342406  0.42675824     0.36000
C2615       C  0.88804179  0.26177239  0.43917965    -0.26200
C2616       C  0.88800013  0.28480788  0.45138193     0.02400
C2617       C  0.91001269  0.29915464  0.45266805     0.27200
C2618       C  0.93144476  0.29076234  0.44018476    -0.25400
N2619       N  0.90933340  0.23001591  0.41371739    -0.82800
H2620       H  0.87102473  0.25088136  0.43845608     0.13000
C2621       C  0.86404341  0.29518732  0.45971767     0.02400
N2622       N  0.91012511  0.32262608  0.46563237    -0.81300
H2623       H  0.94816340  0.30207416  0.44009568     0.17800
C2624       C  0.85823110  0.29556595  0.48513745    -0.26200
C2625       C  0.83640798  0.30738817  0.49358903     0.35900
C2626       C  0.82068589  0.31935576  0.47615142    -0.20200
C2627       C  0.82615017  0.31809892  0.45065914    -0.25400
C2628       C  0.84760115  0.30585726  0.44220314     0.27200
H2629       H  0.87104918  0.28717927  0.49835764     0.13000
N2630       N  0.83108343  0.30877629  0.51981360    -0.82700
H2631       H  0.81416278  0.32757067  0.43740693     0.17800
N2632       N  0.85319623  0.30482672  0.41599769    -0.81300
H2633       H  0.84522282  0.30009473  0.53011884     0.33500
H2634       H  0.81483643  0.29849905  0.52303021     0.38000
H2635       H  0.83896683  0.31325678  0.40560659     0.33400
H2636       H  0.86935197  0.31531128  0.41295058     0.30100
H2637       H  0.92784309  0.33075415  0.46481960     0.33400
H2638       H  0.89801530  0.33470430  0.45620944     0.30100
H2639       H  0.92241332  0.21836258  0.42234387     0.38000
H2640       H  0.89197750  0.22128826  0.41545017     0.33500
C2641       C  0.18031545  0.17227496  0.46987448    -0.20300
C2642       C  0.16830176  0.16650870  0.44703221     0.36000
C2643       C  0.14881132  0.18171351  0.43869407    -0.26200
C2644       C  0.14080620  0.20216793  0.45272473     0.02400
C2645       C  0.15253906  0.20806240  0.47535671     0.27200
C2646       C  0.17245067  0.19318535  0.48363333    -0.25400
N2647       N  0.17539126  0.14501402  0.43261554    -0.82800
H2648       H  0.13939488  0.17734809  0.42133232     0.13000
C2649       C  0.11948707  0.21657354  0.44335993     0.02400
N2650       N  0.14388064  0.22882340  0.48993966    -0.81300
H2651       H  0.18122888  0.19743194  0.50132455     0.17800
C2652       C  0.09628719  0.21436539  0.45529707    -0.26200
C2653       C  0.07450452  0.22350114  0.44390702     0.35900
C2654       C  0.07640628  0.23477006  0.42033099    -0.20200
C2655       C  0.09984808  0.23850665  0.40934025    -0.25400
C2656       C  0.12149562  0.22946763  0.42064977     0.27200
H2657       H  0.09503859  0.20420085  0.47270985     0.13000
N2658       N  0.05046405  0.21960372  0.45510653    -0.82700
H2659       H  0.10109006  0.24745864  0.39124979     0.17800
N2660       N  0.14535433  0.23210566  0.40864290    -0.81300
H2661       H  0.05233273  0.21000399  0.47197243     0.33500
H2662       H  0.04307111  0.23712327  0.45946324     0.38000
H2663       H  0.14349748  0.24174429  0.39178739     0.33400
H2664       H  0.15657789  0.24309634  0.42018279     0.30100
H2665       H  0.15432346  0.23044638  0.50632912     0.33400
H2666       H  0.14707519  0.24503895  0.47960926     0.30100
H2667       H  0.19318122  0.14834322  0.42549872     0.38000
H2668       H  0.16368923  0.14285387  0.41715951     0.33500
C2669       C  0.01690098  0.32202689  0.32060419    -0.20300
C2670       C  0.02791428  0.31781840  0.29718566     0.36000
C2671       C  0.03663451  0.33835952  0.28347713    -0.26200
C2672       C  0.03428680  0.36271268  0.29289746     0.02400
C2673       C  0.02157113  0.36690239  0.31547692     0.27200
C2674       C  0.01293670  0.34644267  0.32907800    -0.25400
N2675       N  0.03182627  0.29281502  0.28835460    -0.82800
H2676       H  0.04654281  0.33535788  0.26612479     0.13000
C2677       C  0.04891880  0.38302551  0.28161716     0.02400
N2678       N  0.01875370  0.39177187  0.32516971    -0.81300
H2679       H  0.00411545  0.34946731  0.34702128     0.17800
C2680       C  0.03686204  0.40438205  0.27243382    -0.26200
C2681       C  0.05058669  0.42523025  0.26481908     0.35900
C2682       C  0.07697820  0.42474377  0.26655095    -0.20200
C2683       C  0.08885338  0.40292288  0.27506242    -0.25400
C2684       C  0.07514999  0.38222451  0.28285140     0.27200
H2685       H  0.01664227  0.40504351  0.27179364     0.13000
N2686       N  0.03716723  0.44669169  0.25621028    -0.82700
H2687       H  0.10904888  0.40204474  0.27606330     0.17800
N2688       N  0.08773622  0.36066526  0.29279077    -0.81300
H2689       H  0.04224855  0.46200356  0.26712666     0.33500
H2690       H  0.04207757  0.45010993  0.23767761     0.38000
H2691       H  0.10711199  0.36304274  0.29222004     0.33400
H2692       H  0.08292550  0.35912746  0.31160645     0.30100
H2693       H  0.00871130  0.39156019  0.34188402     0.33400
H2694       H  0.03654761  0.39851232  0.32947125     0.30100
H2695       H  0.01428078  0.28499455  0.28499066     0.38000
H2696       H  0.04117787  0.29300446  0.27125350     0.33500
C2697       C  0.98461098  0.33255047  0.41418894    -0.20300
C2698       C  0.96435032  0.34899390  0.40976187     0.36000
C2699       C  0.96403869  0.37276239  0.42116265    -0.26200
C2700       C  0.98396223  0.38096938  0.43616515     0.02400
C2701       C  0.00431093  0.36453872  0.44026870     0.27200
C2702       C  0.00404864  0.34043948  0.42984764    -0.25400
N2703       N  0.94429657  0.34167699  0.39350847    -0.82800
H2704       H  0.94820077  0.38500344  0.41820271     0.13000
C2705       C  0.98355796  0.40656274  0.44767743     0.02400
N2706       N  0.02567425  0.37268719  0.45431512    -0.81300
H2707       H  0.01989898  0.32821582  0.43287339     0.17800
C2708       C  0.98906804  0.40903221  0.47315967    -0.26200
C2709       C  0.99199623  0.43251705  0.48427968     0.35900
C2710       C  0.98837569  0.45442300  0.47016309    -0.20200
C2711       C  0.98128588  0.45218238  0.44504487    -0.25400
C2712       C  0.97909858  0.42851508  0.43355930     0.27200
H2713       H  0.99194441  0.39251914  0.48445311     0.13000
N2714       N  0.99987175  0.43404282  0.50975855    -0.82700
H2715       H  0.97826270  0.46895431  0.43419356     0.17800
N2716       N  0.97306914  0.42679996  0.40751218    -0.81300
H2717       H  0.01714188  0.42504232  0.51132232     0.33500
H2718       H  0.98704468  0.42420661  0.52063456     0.38000
H2719       H  0.97017216  0.44454872  0.39995153     0.33400
H2720       H  0.98856842  0.41924366  0.39837558     0.30100
H2721       H  0.03894871  0.35843005  0.45573867     0.33400
H2722       H  0.03409001  0.38713181  0.44431104     0.30100
H2723       H  0.93517415  0.32656251  0.40170631     0.38000
H2724       H  0.93107464  0.35596960  0.39196818     0.33500
C2725       C  0.79767124  0.23718266  0.27743653    -0.20300
C2726       C  0.80162070  0.22028965  0.29732661     0.36000
C2727       C  0.82581794  0.21749168  0.30726151    -0.26200
C2728       C  0.84602094  0.23185495  0.29855554     0.02400
C2729       C  0.84190219  0.24879549  0.27880800     0.27200
C2730       C  0.81797952  0.25083948  0.26818323    -0.25400
N2731       N  0.78166691  0.20595922  0.30804226    -0.82800
H2732       H  0.82874873  0.20440200  0.32237547     0.13000
C2733       C  0.87089517  0.23048283  0.31132450     0.02400
N2734       N  0.86183278  0.26449187  0.27014915    -0.81300
H2735       H  0.81486287  0.26393291  0.25309737     0.17800
C2736       C  0.89279045  0.22628522  0.29738356    -0.26200
C2737       C  0.91670726  0.22772419  0.30846442     0.35900
C2738       C  0.91877724  0.23273149  0.33426392    -0.20200
C2739       C  0.89682275  0.23585946  0.34825546    -0.25400
C2740       C  0.87304865  0.23510619  0.33713639     0.27200
H2741       H  0.89120554  0.22242492  0.27762205     0.13000
N2742       N  0.93872060  0.22357162  0.29371025    -0.82700
H2743       H  0.89822858  0.24016148  0.36787427     0.17800
N2744       N  0.85113148  0.23989212  0.35187938    -0.81300
H2745       H  0.93385991  0.21847115  0.27553485     0.33500
H2746       H  0.94815962  0.24054300  0.29226595     0.38000
H2747       H  0.85589453  0.24283185  0.37054657     0.33400
H2748       H  0.84313376  0.25651150  0.34546379     0.30100
H2749       H  0.85573735  0.27588076  0.25553094     0.33400
H2750       H  0.86673019  0.27640291  0.28478545     0.30100
H2751       H  0.76460569  0.20996182  0.29953868     0.38000
H2752       H  0.77986051  0.21146851  0.32665733     0.33500
C2753       C  0.20507084  0.25774378  0.27741298    -0.20300
C2754       C  0.18494867  0.24451837  0.26667189     0.36000
C2755       C  0.16086113  0.24674686  0.27695695    -0.26200
C2756       C  0.15620224  0.26228576  0.29750652     0.02400
C2757       C  0.17632731  0.27567145  0.30803836     0.27200
C2758       C  0.20055734  0.27329310  0.29795447    -0.25400
N2759       N  0.18890838  0.22957806  0.24474103    -0.82800
H2760       H  0.14551258  0.23648083  0.26873929     0.13000
C2761       C  0.13039568  0.26319075  0.30826188     0.02400
N2762       N  0.17234166  0.29125052  0.32933488    -0.81300
H2763       H  0.21588415  0.28358620  0.30617240     0.17800
C2764       C  0.11930789  0.24092738  0.31641048    -0.26200
C2765       C  0.09505414  0.24064448  0.32657355     0.35900
C2766       C  0.08147821  0.26315813  0.32887075    -0.20200
C2767       C  0.09239516  0.28546171  0.32055445    -0.25400
C2768       C  0.11650502  0.28555041  0.30987012     0.27200
H2769       H  0.12980461  0.22367579  0.31510438     0.13000
N2770       N  0.08457916  0.21768679  0.33561632    -0.82700
H2771       H  0.08216174  0.30283627  0.32228876     0.17800
N2772       N  0.12661574  0.30825048  0.30016166    -0.81300
H2773       H  0.09731700  0.20302921  0.33357494     0.33500
H2774       H  0.06925243  0.21333855  0.32436052     0.38000
H2775       H  0.11454729  0.31475446  0.28627593     0.33400
H2776       H  0.12691765  0.32140863  0.31453933     0.30100
H2777       H  0.18387157  0.28486166  0.34372450     0.33400
H2778       H  0.17795806  0.30933366  0.32470772     0.30100
H2779       H  0.20090651  0.21492080  0.24938414     0.38000
H2780       H  0.17218862  0.22144074  0.23888268     0.33500
C2781       C  0.82354601  0.47873688  0.67745776    -0.20300
C2782       C  0.81599112  0.49580760  0.65890923     0.36000
C2783       C  0.80485845  0.48672467  0.63704909    -0.26200
C2784       C  0.80118246  0.46108544  0.63381068     0.02400
C2785       C  0.80692589  0.44433269  0.65328037     0.27200
C2786       C  0.81841057  0.45334783  0.67482853    -0.25400
N2787       N  0.82161884  0.52189683  0.66141847    -0.82800
H2788       H  0.80043325  0.49941289  0.62194748     0.13000
C2789       C  0.79432318  0.45136551  0.60911158     0.02400
N2790       N  0.80215240  0.41808859  0.65048084    -0.81300
H2791       H  0.82448324  0.44039025  0.68906198     0.17800
C2792       C  0.81097461  0.43489348  0.59758342    -0.26200
C2793       C  0.80388269  0.42152053  0.57652854     0.35900
C2794       C  0.77995039  0.42526890  0.56622382    -0.20200
C2795       C  0.76425804  0.44378152  0.57617819    -0.25400
C2796       C  0.77114020  0.45672778  0.59790410     0.27200
H2797       H  0.82912681  0.43133869  0.60584536     0.13000
N2798       N  0.82069315  0.40338696  0.56633920    -0.82700
H2799       H  0.74585825  0.44668598  0.56826485     0.17800
N2800       N  0.75430353  0.47425461  0.60927128    -0.81300
H2801       H  0.82459676  0.39020232  0.58016896     0.33500
H2802       H  0.83739465  0.41242249  0.56190086     0.38000
H2803       H  0.73800220  0.47599112  0.59866332     0.33400
H2804       H  0.74897429  0.46697865  0.62654239     0.30100
H2805       H  0.80780318  0.40831358  0.66639334     0.33400
H2806       H  0.78282489  0.41578729  0.64903228     0.30100
H2807       H  0.81099851  0.52880086  0.67624098     0.38000
H2808       H  0.81589212  0.53169583  0.64555486     0.11900
C2809       C  0.82157483  0.52985168  0.81316985    -0.20300
C2810       C  0.80692163  0.51325719  0.82741140     0.36000
C2811       C  0.79508065  0.52207642  0.84906755    -0.26200
C2812       C  0.79738938  0.54710416  0.85628614     0.02400
C2813       C  0.81000189  0.56405056  0.84063044     0.27200
C2814       C  0.82279911  0.55503347  0.81983056    -0.25400
N2815       N  0.80568671  0.48725429  0.82097139    -0.82800
H2816       H  0.78543167  0.50909993  0.86115631     0.13000
C2817       C  0.78972786  0.55489950  0.88160290     0.02400
N2818       N  0.81055828  0.59020075  0.84656120    -0.81300
H2819       H  0.83459639  0.56755991  0.80930181     0.17800
C2820       C  0.80762671  0.56649550  0.89671183    -0.26200
C2821       C  0.80100225  0.57719863  0.91943121     0.35900
C2822       C  0.77624374  0.57526163  0.92800245    -0.20200
C2823       C  0.75878054  0.56160328  0.91403306    -0.25400
C2824       C  0.76518258  0.55175119  0.89056285     0.27200
H2825       H  0.82672865  0.56827997  0.89027147     0.13000
N2826       N  0.81930621  0.59088078  0.93325217    -0.82700
H2827       H  0.73963306  0.56042091  0.92043799     0.17800
N2828       N  0.74666154  0.53972620  0.87536622    -0.81300
H2829       H  0.82565466  0.60551631  0.92205837     0.33500
H2830       H  0.83445297  0.57903000  0.93665795     0.38000
H2831       H  0.72953357  0.53903980  0.88468469     0.33400
H2832       H  0.74391811  0.55076587  0.85952940     0.30100
H2833       H  0.82070251  0.60007630  0.83316269     0.33400
H2834       H  0.79220042  0.59677745  0.84555621     0.30100
H2835       H  0.82353305  0.47966979  0.82334526     0.38000
H2836       H  0.79395556  0.47772099  0.83327582     0.33500
C2837       C  0.91881594  0.50962458  0.66479412    -0.20300
C2838       C  0.91540999  0.52966837  0.64808895     0.36000
C2839       C  0.92685653  0.52920956  0.62457252    -0.26200
C2840       C  0.94125933  0.50873192  0.61680992     0.02400
C2841       C  0.94501580  0.48868616  0.63365031     0.27200
C2842       C  0.93411056  0.48957856  0.65759635    -0.25400
N2843       N  0.90056350  0.55078420  0.65509136    -0.82800
H2844       H  0.92434098  0.54500288  0.61221555     0.13000
C2845       C  0.95236524  0.50886517  0.59117479     0.02400
N2846       N  0.95922599  0.46718112  0.62615617    -0.81300
H2847       H  0.93656090  0.47399205  0.67022728     0.17800
C2848       C  0.97787516  0.50365438  0.58809023    -0.26200
C2849       C  0.98882037  0.50295583  0.56429258     0.35900
C2850       C  0.97459206  0.50970681  0.54315271    -0.20200
C2851       C  0.94929720  0.51585912  0.54622048    -0.25400
C2852       C  0.93779222  0.51440469  0.56981128     0.27200
H2853       H  0.98922740  0.49952109  0.60429372     0.13000
N2854       N  0.01415225  0.49454169  0.56137495    -0.82700
H2855       H  0.93821026  0.52040168  0.52993541     0.17800
N2856       N  0.91122684  0.51760461  0.57201930    -0.81300
H2857       H  0.02206639  0.49023070  0.57868114     0.33500
H2858       H  0.01377670  0.47794600  0.55116190     0.38000
H2859       H  0.90324570  0.52121664  0.55458645     0.33400
H2860       H  0.90380643  0.50062035  0.57805446     0.30100
H2861       H  0.96023856  0.45417483  0.64065140     0.33400
H2862       H  0.94959654  0.45857482  0.61155291     0.30100
H2863       H  0.88616821  0.55272419  0.64205797     0.38000
H2864       H  0.91179998  0.56668592  0.65410645     0.33500
C2865       C  0.91135294  0.49048529  0.83219127    -0.20300
C2866       C  0.89772275  0.49346563  0.85461115     0.36000
C2867       C  0.91016630  0.49306193  0.87773845    -0.26200
C2868       C  0.93614389  0.48966489  0.87925907     0.02400
C2869       C  0.94966334  0.48607190  0.85690035     0.27200
C2870       C  0.93728925  0.48687098  0.83369370    -0.25400
N2871       N  0.87129575  0.49772855  0.85402863    -0.82800
H2872       H  0.89945211  0.49588229  0.89464191     0.13000
C2873       C  0.94863619  0.49000844  0.90434717     0.02400
N2874       N  0.97591121  0.48100208  0.85766619    -0.81300
H2875       H  0.94801507  0.48429894  0.81676436     0.17800
C2876       C  0.93961424  0.47459254  0.92360958    -0.26200
C2877       C  0.95015478  0.47513478  0.94777380     0.35900
C2878       C  0.97043695  0.49112960  0.95272630    -0.20200
C2879       C  0.97987292  0.50597363  0.93337913    -0.25400
C2880       C  0.96874920  0.50624453  0.90958452     0.27200
H2881       H  0.92414677  0.46217207  0.91978595     0.13000
N2882       N  0.94052704  0.45933818  0.96711834    -0.82700
H2883       H  0.99551878  0.51818268  0.93721839     0.17800
N2884       N  0.97727321  0.52359118  0.89103205    -0.81300
H2885       H  0.92591997  0.44835791  0.96032068     0.33500
H2886       H  0.93289078  0.47077513  0.98090271     0.38000
H2887       H  0.99213947  0.53421187  0.89785397     0.33400
H2888       H  0.96265770  0.53604647  0.88745089     0.30100
H2889       H  0.97900982  0.46373035  0.84915451     0.33400
H2890       H  0.98499078  0.49460267  0.84706719     0.30100
H2891       H  0.86264911  0.48371587  0.86445004     0.38000
H2892       H  0.86761342  0.51482746  0.86266272     0.33500
C2893       C  0.77662413  0.70460294  0.75767675    -0.20300
C2894       C  0.76457532  0.68238356  0.75069626     0.36000
C2895       C  0.77726038  0.65958917  0.75227290    -0.26200
C2896       C  0.80187767  0.65827761  0.76117290     0.02400
C2897       C  0.81385539  0.68050711  0.76890957     0.27200
C2898       C  0.80116577  0.70351359  0.76682730    -0.25400
N2899       N  0.73954599  0.68303653  0.74128058    -0.82800
H2900       H  0.76795492  0.64284629  0.74586473     0.13000
C2901       C  0.81501535  0.63366848  0.76074331     0.02400
N2902       N  0.83877443  0.67962363  0.77883765    -0.81300
H2903       H  0.81042537  0.72061093  0.77224087     0.17800
C2904       C  0.83802308  0.63153817  0.74837276    -0.26200
C2905       C  0.85002307  0.60831750  0.74579007     0.35900
C2906       C  0.83862266  0.58662483  0.75542254    -0.20200
C2907       C  0.81523353  0.58855809  0.76693037    -0.25400
C2908       C  0.80379471  0.61193643  0.77061998     0.27200
H2909       H  0.84635812  0.64797058  0.74010446     0.13000
N2910       N  0.87328931  0.60654658  0.73257440    -0.82700
H2911       H  0.80621920  0.57184634  0.77375041     0.17800
N2912       N  0.78099434  0.61375424  0.78464056    -0.81300
H2913       H  0.87936070  0.62419394  0.72692839     0.33500
H2914       H  0.87002067  0.59635168  0.71629411     0.38000
H2915       H  0.77536689  0.59615108  0.79083838     0.33400
H2916       H  0.78476712  0.62429562  0.80060116     0.30100
H2917       H  0.84487432  0.69752344  0.78356407     0.33400
H2918       H  0.83815050  0.66937116  0.79540523     0.30100
H2919       H  0.72851069  0.67170979  0.75266450     0.38000
H2920       H  0.73959403  0.67538401  0.72335425     0.33500
C2921       C  0.66793077  0.08207373  0.76475455    -0.20300
C2922       C  0.67920379  0.09304803  0.74366038     0.36000
C2923       C  0.68958947  0.11705623  0.74551945    -0.26200
C2924       C  0.68946524  0.13034585  0.76807847     0.02400
C2925       C  0.67863582  0.11921479  0.78935451     0.27200
C2926       C  0.66762357  0.09534068  0.78737070    -0.25400
N2927       N  0.67883495  0.08038093  0.72003453    -0.82800
H2928       H  0.69762221  0.12566417  0.72910962     0.13000
C2929       C  0.70081282  0.15583826  0.76861375     0.02400
N2930       N  0.67893010  0.13212689  0.81282802    -0.81300
H2931       H  0.65879022  0.08700551  0.80351118     0.17800
C2932       C  0.68625370  0.17680509  0.77491889    -0.26200
C2933       C  0.69586113  0.20120954  0.77264423     0.35900
C2934       C  0.72029365  0.20484199  0.76354281    -0.20200
C2935       C  0.73504558  0.18383033  0.75817057    -0.25400
C2936       C  0.72572546  0.15948379  0.76086065     0.27200
H2937       H  0.66713035  0.17426706  0.78097230     0.13000
N2938       N  0.68067590  0.22218139  0.77924660    -0.82700
H2939       H  0.75396708  0.18651276  0.75154913     0.17800
N2940       N  0.74141305  0.13835534  0.75554156    -0.81300
H2941       H  0.67554760  0.22024209  0.79794422     0.33500
H2942       H  0.66438842  0.22153828  0.76850743     0.38000
H2943       H  0.75917669  0.14416933  0.74995980     0.33400
H2944       H  0.74379811  0.12845544  0.77216914     0.30100
H2945       H  0.67027175  0.12140682  0.82660734     0.33400
H2946       H  0.69759357  0.13408786  0.81822593     0.30100
H2947       H  0.69063005  0.06489424  0.72146788     0.38000
H2948       H  0.68638064  0.09167985  0.70606750     0.33500
C2949       C  0.76160608  0.16656351  0.91786231    -0.20300
C2950       C  0.76080359  0.15266296  0.89537298     0.36000
C2951       C  0.76256571  0.16482730  0.87230027    -0.26200
C2952       C  0.76490748  0.19077485  0.87084729     0.02400
C2953       C  0.76616024  0.20478211  0.89317938     0.27200
C2954       C  0.76434043  0.19255946  0.91645503    -0.25400
N2955       N  0.75716041  0.12618381  0.89572846    -0.82800
H2956       H  0.76110590  0.15394482  0.85533285     0.13000
C2957       C  0.76336870  0.20304654  0.84589234     0.02400
N2958       N  0.76915306  0.23138509  0.89207602    -0.81300
H2959       H  0.76519982  0.20332306  0.93352132     0.17800
C2960       C  0.74388382  0.21997951  0.84146658    -0.26200
C2961       C  0.74052607  0.23103774  0.81797665     0.35900
C2962       C  0.75676381  0.22484295  0.79821436    -0.20200
C2963       C  0.77633430  0.20789140  0.80246239    -0.25400
C2964       C  0.77985576  0.19696235  0.82617654     0.27200
H2965       H  0.73099130  0.22435746  0.85640256     0.13000
N2966       N  0.72058464  0.24859127  0.81401223    -0.82700
H2967       H  0.78883779  0.20327039  0.78727374     0.17800
N2968       N  0.80007939  0.17980221  0.83034768    -0.81300
H2969       H  0.71010995  0.25093496  0.83028400     0.33500
H2970       H  0.72862880  0.26588365  0.81001139     0.38000
H2971       H  0.81039850  0.17728030  0.81399863     0.33400
H2972       H  0.81213888  0.18793980  0.84333574     0.30100
H2973       H  0.76970148  0.23895653  0.91002480     0.33400
H2974       H  0.78651772  0.23498673  0.88394366     0.30100
H2975       H  0.77219429  0.11780546  0.88650865     0.38000
H2976       H  0.74087975  0.12211929  0.88577328     0.33500
C2977       C  0.69833287  0.24209243  0.72733451    -0.20300
C2978       C  0.68036332  0.26139231  0.72911733     0.36000
C2979       C  0.65618132  0.25794599  0.71919300    -0.26200
C2980       C  0.64879858  0.23510766  0.70859817     0.02400
C2981       C  0.66652752  0.21542325  0.70777898     0.27200
C2982       C  0.69118685  0.21942677  0.71627101    -0.25400
N2983       N  0.68668441  0.28440963  0.74131517    -0.82800
H2984       H  0.64303053  0.27330306  0.71967046     0.13000
C2985       C  0.62320695  0.23268822  0.69694439     0.02400
N2986       N  0.65932235  0.19123139  0.69877127    -0.81300
H2987       H  0.70475384  0.20449604  0.71486133     0.17800
C2988       C  0.62114122  0.22275316  0.67283540    -0.26200
C2989       C  0.59809291  0.22142432  0.66024932     0.35900
C2990       C  0.57628736  0.23187548  0.67119289    -0.20200
C2991       C  0.57809622  0.24106128  0.69574197    -0.25400
C2992       C  0.60110792  0.24111120  0.70885939     0.27200
H2993       H  0.63783399  0.21639276  0.66337999     0.13000
N2994       N  0.59711449  0.21006375  0.63598240    -0.82700
H2995       H  0.56158741  0.24863557  0.70463506     0.17800
N2996       N  0.60209932  0.24981919  0.73417806    -0.81300
H2997       H  0.61484545  0.20422729  0.63026105     0.33500
H2998       H  0.58626828  0.19394321  0.63754533     0.38000
H2999       H  0.58436743  0.25531855  0.74023751     0.33400
H3000       H  0.60744676  0.23475562  0.74536063     0.30100
H3001       H  0.67438486  0.17881638  0.69953357     0.33400
H3002       H  0.64575069  0.18427325  0.71091540     0.30100
H3003       H  0.69029920  0.28036325  0.76004100     0.38000
H3004       H  0.67152724  0.29673029  0.74107399     0.33500
C3005       C  0.73571434  0.27659807  0.70532319    -0.20300
C3006       C  0.73755323  0.26156347  0.68370149     0.36000
C3007       C  0.73642650  0.27265559  0.65993301    -0.26200
C3008       C  0.73493612  0.29864488  0.65703876     0.02400
C3009       C  0.73300602  0.31370828  0.67863625     0.27200
C3010       C  0.73245606  0.30245465  0.70243112    -0.25400
N3011       N  0.74139974  0.23510556  0.68594760    -0.82800
H3012       H  0.73755142  0.26097552  0.64349317     0.13000
C3013       C  0.73609117  0.30972976  0.63135673     0.02400
N3014       N  0.73274351  0.34042026  0.67641494    -0.81300
H3015       H  0.73086593  0.31404720  0.71888521     0.17800
C3016       C  0.71749083  0.32651847  0.62352128    -0.26200
C3017       C  0.71827883  0.33777438  0.59975466     0.35900
C3018       C  0.73799356  0.33196505  0.58316841    -0.20200
C3019       C  0.75607878  0.31447999  0.59064767    -0.25400
C3020       C  0.75559655  0.30364712  0.61460869     0.27200
H3021       H  0.70225503  0.33089630  0.63606543     0.13000
N3022       N  0.69909860  0.35508731  0.59243766    -0.82700
H3023       H  0.77140173  0.31015741  0.57818582     0.17800
N3024       N  0.77532917  0.28710611  0.62226172    -0.81300
H3025       H  0.68617175  0.35757005  0.60682379     0.33500
H3026       H  0.68935054  0.34710682  0.57756187     0.38000
H3027       H  0.78816332  0.28448599  0.60782034     0.33400
H3028       H  0.78501368  0.29580223  0.63678194     0.30100
H3029       H  0.73157120  0.34874972  0.69400070     0.33400
H3030       H  0.74992733  0.34580280  0.66890745     0.30100
H3031       H  0.74219184  0.22671310  0.66838026     0.38000
H3032       H  0.75885056  0.23229659  0.69426350     0.33500
C3033       C  0.77369966  0.29699537  0.74215070    -0.20300
C3034       C  0.78825521  0.30374955  0.72125150     0.36000
C3035       C  0.79895192  0.32778111  0.71988891    -0.26200
C3036       C  0.79584465  0.34533815  0.73919008     0.02400
C3037       C  0.78153259  0.33847100  0.76020818     0.27200
C3038       C  0.77055280  0.31460184  0.76133617    -0.25400
N3039       N  0.79215667  0.28646009  0.70129210    -0.82800
H3040       H  0.80985794  0.33273847  0.70363006     0.13000
C3041       C  0.80838022  0.37041034  0.73769113     0.02400
N3042       N  0.77851534  0.35562966  0.78057421    -0.81300
H3043       H  0.75946931  0.30956678  0.77746019     0.17800
C3044       C  0.79427794  0.39252634  0.73984685    -0.26200
C3045       C  0.80574393  0.41627062  0.73961867     0.35900
C3046       C  0.83189454  0.41830670  0.73691881    -0.20200
C3047       C  0.84585909  0.39611483  0.73424521    -0.25400
C3048       C  0.83452625  0.37237601  0.73492848     0.27200
H3049       H  0.77418352  0.39136130  0.74185881     0.13000
N3050       N  0.79067056  0.43821191  0.74199608    -0.82700
H3051       H  0.86597460  0.39716904  0.73241345     0.17800
N3052       N  0.84961713  0.35020203  0.73352775    -0.81300
H3053       H  0.77767030  0.43827675  0.72744431     0.33500
H3054       H  0.78087836  0.43704982  0.75880732     0.38000
H3055       H  0.86848644  0.35476513  0.73155801     0.33400
H3056       H  0.84795149  0.34082911  0.75054037     0.30100
H3057       H  0.76740723  0.34781751  0.79454988     0.33400
H3058       H  0.79613969  0.35855249  0.78844269     0.30100
H3059       H  0.78511174  0.29450560  0.68498870     0.38000
H3060       H  0.81138299  0.28437941  0.69875194     0.33500
C3061       C  0.57313613  0.93054181  0.77083446    -0.20300
C3062       C  0.56778679  0.91055893  0.75459802     0.36000
C3063       C  0.55583484  0.88918071  0.76402026    -0.26200
C3064       C  0.54924916  0.88766526  0.78926491     0.02400
C3065       C  0.55296317  0.90839619  0.80497901     0.27200
C3066       C  0.56515840  0.92952606  0.79563867    -0.25400
N3067       N  0.57626206  0.91129228  0.72919008    -0.82800
H3068       H  0.55302129  0.87312424  0.75208662     0.13000
C3069       C  0.54210667  0.86333009  0.80007578     0.02400
N3070       N  0.54539928  0.90733767  0.83067383    -0.81300
H3071       H  0.56945594  0.94472226  0.80805843     0.17800
C3072       C  0.55910384  0.85164045  0.81610782    -0.26200
C3073       C  0.55271085  0.82985540  0.82887210     0.35900
C3074       C  0.52895477  0.81906113  0.82527028    -0.20200
C3075       C  0.51238219  0.83003259  0.80808150    -0.25400
C3076       C  0.51864319  0.85234974  0.79565750     0.27200
H3077       H  0.57724908  0.85997760  0.81935436     0.13000
N3078       N  0.57021978  0.81916925  0.84604386    -0.82700
H3079       H  0.49393593  0.82214512  0.80559736     0.17800
N3080       N  0.50101498  0.86439632  0.77940623    -0.81300
H3081       H  0.57417174  0.83248733  0.85971874     0.33500
H3082       H  0.58677684  0.81547890  0.83640340     0.38000
H3083       H  0.48454599  0.85400347  0.77829049     0.33400
H3084       H  0.49622761  0.88149450  0.78748155     0.30100
H3085       H  0.54970097  0.92403166  0.83979077     0.33400
H3086       H  0.52594954  0.90568306  0.83100209     0.30100
H3087       H  0.56656073  0.92563981  0.72018666     0.38000
H3088       H  0.57159013  0.89477954  0.71994994     0.33500
C3089       C  0.56845167  0.73107060  0.93246627    -0.20300
C3090       C  0.56791273  0.71232914  0.95074126     0.36000
C3091       C  0.59040114  0.70532927  0.96226994    -0.26200
C3092       C  0.61279526  0.71726950  0.95587656     0.02400
C3093       C  0.61259590  0.73802344  0.93994075     0.27200
C3094       C  0.59018984  0.74494912  0.92853689    -0.25400
N3095       N  0.54496985  0.69980137  0.95651743    -0.82800
H3096       H  0.59080591  0.68953037  0.97486780     0.13000
C3097       C  0.63650352  0.70492988  0.96163465     0.02400
N3098       N  0.63547501  0.75071917  0.93410207    -0.81300
H3099       H  0.59001071  0.76017901  0.91526400     0.17800
C3100       C  0.64715963  0.68994122  0.94310957    -0.26200
C3101       C  0.66855327  0.67591170  0.94802523     0.35900
C3102       C  0.67967593  0.67721628  0.97175362    -0.20200
C3103       C  0.66977707  0.69343869  0.98986070    -0.25400
C3104       C  0.64798557  0.70719858  0.98504667     0.27200
H3105       H  0.63831971  0.68853572  0.92497050     0.13000
N3106       N  0.67864703  0.66003587  0.92904570    -0.82700
H3107       H  0.67818987  0.69429537  0.00821929     0.17800
N3108       N  0.63701108  0.72273651  0.00393365    -0.81300
H3109       H  0.68261540  0.67101945  0.91344935     0.33500
H3110       H  0.66487968  0.64721391  0.92393788     0.38000
H3111       H  0.64766155  0.72208400  0.02027173     0.33400
H3112       H  0.63766006  0.74114586  0.99756669     0.30100
H3113       H  0.63216059  0.76528675  0.92155672     0.33400
H3114       H  0.64202319  0.75887627  0.95054483     0.30100
H3115       H  0.53280066  0.71299814  0.96418463     0.38000
H3116       H  0.54791540  0.68623063  0.97021165     0.33500
C3117       C  0.43064582  0.56524962  0.77870765    -0.20300
C3118       C  0.44518379  0.58023110  0.76271267     0.36000
C3119       C  0.45731940  0.60132347  0.77250409    -0.26200
C3120       C  0.45598014  0.60685914  0.79803748     0.02400
C3121       C  0.44443709  0.58974222  0.81436143     0.27200
C3122       C  0.43112147  0.56962834  0.80442550    -0.25400
N3123       N  0.44578578  0.57524707  0.73639689    -0.82800
H3124       H  0.46641971  0.61427919  0.75998418     0.13000
C3125       C  0.46298089  0.63204302  0.80712721     0.02400
N3126       N  0.44524641  0.59366107  0.84087637    -0.81300
H3127       H  0.42016567  0.55801943  0.81672006     0.17800
C3128       C  0.44494350  0.64567193  0.82031746    -0.26200
C3129       C  0.45074145  0.66846206  0.83141051     0.35900
C3130       C  0.47492710  0.67840753  0.82887906    -0.20200
C3131       C  0.49242143  0.66593824  0.81380226    -0.25400
C3132       C  0.48674534  0.64263326  0.80303085     0.27200
H3133       H  0.42629805  0.63818816  0.82266267     0.13000
N3134       N  0.43208952  0.68118001  0.84573326    -0.82700
H3135       H  0.51106762  0.67349673  0.81185854     0.17800
N3136       N  0.50523809  0.62934414  0.78885631    -0.81300
H3137       H  0.42638284  0.66935260  0.86013566     0.33500
H3138       H  0.41669282  0.68442705  0.83417728     0.38000
H3139       H  0.52167706  0.63975227  0.78756581     0.33400
H3140       H  0.50968968  0.61307401  0.79865159     0.30100
H3141       H  0.43573179  0.57943562  0.85021152     0.33400
H3142       H  0.46393111  0.59238270  0.84641067     0.30100
H3143       H  0.45512888  0.55829779  0.73389558     0.38000
H3144       H  0.45641266  0.58871898  0.72714909     0.33500
C3145       C  0.50892191  0.66815211  0.92241845    -0.20300
C3146       C  0.52901539  0.65121408  0.91947682     0.36000
C3147       C  0.52794959  0.62745665  0.93078993    -0.26200
C3148       C  0.50698272  0.61978366  0.94455005     0.02400
C3149       C  0.48699945  0.63687300  0.94768852     0.27200
C3150       C  0.48843688  0.66094165  0.93705757    -0.25400
N3151       N  0.55039473  0.65811037  0.90483027    -0.82800
H3152       H  0.54355481  0.61474105  0.92871096     0.13000
C3153       C  0.50624865  0.59396783  0.95562752     0.02400
N3154       N  0.46488785  0.62943674  0.96090761    -0.81300
H3155       H  0.47281505  0.67365716  0.93906053     0.17800
C3156       C  0.50024918  0.59097715  0.98092736    -0.26200
C3157       C  0.49803344  0.56729027  0.99188656     0.35900
C3158       C  0.50391597  0.54562869  0.97777493    -0.20200
C3159       C  0.51054238  0.54853848  0.95259741    -0.25400
C3160       C  0.51103019  0.57232848  0.94121221     0.27200
H3161       H  0.49653988  0.60728535  0.99227003     0.13000
N3162       N  0.48892322  0.56610773  0.01710111    -0.82700
H3163       H  0.51462966  0.53208416  0.94160511     0.17800
N3164       N  0.51571667  0.57450625  0.91492729    -0.81300
H3165       H  0.47108223  0.57407642  0.01726866     0.33500
H3166       H  0.48655124  0.54782146  0.02321712     0.38000
H3167       H  0.51866653  0.55693155  0.90701351     0.33400
H3168       H  0.49953224  0.58169336  0.90666246     0.30100
H3169       H  0.45193437  0.64404598  0.96152349     0.33400
H3170       H  0.45654167  0.61501606  0.95079570     0.30100
H3171       H  0.55914658  0.67305366  0.91374609     0.38000
H3172       H  0.56341870  0.64356766  0.90433303     0.33500
C3173       C  0.58371616  0.75832051  0.83781260    -0.20300
C3174       C  0.60622670  0.75006458  0.84890651     0.36000
C3175       C  0.62885245  0.75202425  0.83573964    -0.26200
C3176       C  0.62964412  0.76187978  0.81155622     0.02400
C3177       C  0.60713625  0.76983717  0.80023272     0.27200
C3178       C  0.58435104  0.76768950  0.81336503    -0.25400
N3179       N  0.60593713  0.73879571  0.87317923    -0.82800
H3180       H  0.64599604  0.74532764  0.84418091     0.13000
C3181       C  0.65400577  0.76193538  0.79790707     0.02400
N3182       N  0.60756352  0.78019614  0.77553498    -0.81300
H3183       H  0.56711795  0.77391509  0.80475953     0.17800
C3184       C  0.65652372  0.74642275  0.77696606    -0.26200
C3185       C  0.67962111  0.74353939  0.76475947     0.35900
C3186       C  0.70075722  0.75663820  0.77349590    -0.20200
C3187       C  0.69831674  0.77237797  0.79419571    -0.25400
C3188       C  0.67523703  0.77538978  0.80641249     0.27200
H3189       H  0.64045158  0.73603267  0.77045777     0.13000
N3190       N  0.68159557  0.72772661  0.74316906    -0.82700
H3191       H  0.71449929  0.78249458  0.80085789     0.17800
N3192       N  0.67414717  0.79231600  0.82718788    -0.81300
H3193       H  0.66431545  0.71974094  0.73891801     0.33500
H3194       H  0.69371018  0.71303582  0.74737637     0.38000
H3195       H  0.67916752  0.80997150  0.82063057     0.33400
H3196       H  0.65600761  0.79420824  0.83399353     0.30100
H3197       H  0.58953437  0.78518358  0.76989724     0.33400
H3198       H  0.61792259  0.79668897  0.77627022     0.30100
H3199       H  0.59600928  0.72208927  0.87176505     0.38000
H3200       H  0.62401213  0.73401621  0.87884433     0.33500
C3201       C  0.48900245  0.83544132  0.91535679    -0.20300
C3202       C  0.49235207  0.85796097  0.90203378     0.36000
C3203       C  0.49066792  0.88098266  0.91440503    -0.26200
C3204       C  0.48568754  0.88230527  0.94002540     0.02400
C3205       C  0.48150615  0.85988017  0.95333791     0.27200
C3206       C  0.48363117  0.83668198  0.94095986    -0.25400
N3207       N  0.49846821  0.85757630  0.87602818    -0.82800
H3208       H  0.49400649  0.89797652  0.90399067     0.13000
C3209       C  0.48616521  0.90727147  0.95253434     0.02400
N3210       N  0.47496769  0.86077629  0.97930141    -0.81300
H3211       H  0.48072438  0.81953305  0.95123214     0.17800
C3212       C  0.47138212  0.92700877  0.94328190    -0.26200
C3213       C  0.47304402  0.95129303  0.95342384     0.35900
C3214       C  0.48957647  0.95580626  0.97335035    -0.20200
C3215       C  0.50389515  0.93604714  0.98285766    -0.25400
C3216       C  0.50275242  0.91212190  0.97236103     0.27200
H3217       H  0.45875985  0.92349667  0.92789241     0.13000
N3218       N  0.45807704  0.97129057  0.94365569    -0.82700
H3219       H  0.51671201  0.93946888  0.99812812     0.17800
N3220       N  0.51931428  0.89307412  0.98120763    -0.81300
H3221       H  0.44664804  0.96482513  0.92922836     0.33500
H3222       H  0.47017188  0.98433818  0.93574697     0.38000
H3223       H  0.53763297  0.89938927  0.97894732     0.33400
H3224       H  0.51611231  0.89067533  0.00028376     0.30100
H3225       H  0.45770450  0.86979079  0.98073216     0.33400
H3226       H  0.47252000  0.84276406  0.98636152     0.30100
H3227       H  0.48485758  0.86777179  0.86642495     0.38000
H3228       H  0.51561166  0.86656084  0.87362541     0.33500
C3229       C  0.22212964  0.79472451  0.75934030    -0.20300
C3230       C  0.20456348  0.80095195  0.77788101     0.36000
C3231       C  0.19335057  0.82485038  0.77795413    -0.26200
C3232       C  0.19913576  0.84275138  0.75958068     0.02400
C3233       C  0.21661293  0.83634326  0.74090630     0.27200
C3234       C  0.22806955  0.81266614  0.74121557    -0.25400
N3235       N  0.19794208  0.78308641  0.79653371    -0.82800
H3236       H  0.18001261  0.82943222  0.79242920     0.13000
C3237       C  0.18659560  0.86790511  0.75962533     0.02400
N3238       N  0.22228544  0.85373326  0.72132580    -0.81300
H3239       H  0.24153381  0.80793827  0.72689486     0.17800
C3240       C  0.20110536  0.88979057  0.75936059    -0.26200
C3241       C  0.19004495  0.91374108  0.75801304     0.35900
C3242       C  0.16373029  0.91606294  0.75728389    -0.20200
C3243       C  0.14926729  0.89413445  0.75806528    -0.25400
C3244       C  0.16033385  0.87023189  0.75883278     0.27200
H3245       H  0.22125924  0.88814616  0.76007790     0.13000
N3246       N  0.20550390  0.93561020  0.75735939    -0.82700
H3247       H  0.12909989  0.89556470  0.75720846     0.17800
N3248       N  0.14496400  0.84828530  0.75806063    -0.81300
H3249       H  0.22440167  0.93067729  0.75758367     0.33500
H3250       H  0.20218666  0.94566549  0.77372042     0.38000
H3251       H  0.12605183  0.85313636  0.75744437     0.33400
H3252       H  0.14885244  0.83893885  0.74139444     0.30100
H3253       H  0.23551764  0.84622864  0.70910561     0.33400
H3254       H  0.20597231  0.85644916  0.71094509     0.30100
H3255       H  0.20193091  0.79081252  0.81398085     0.38000
H3256       H  0.17866876  0.78018890  0.79550547     0.33500
C3257       C  0.27882150  0.70425958  0.73921328    -0.20300
C3258       C  0.30438453  0.70207212  0.73302861     0.36000
C3259       C  0.31543881  0.67810841  0.73137874    -0.26200
C3260       C  0.30116860  0.65624482  0.73447016     0.02400
C3261       C  0.27520112  0.65863992  0.73843275     0.27200
C3262       C  0.26460879  0.68241331  0.74158647    -0.25400
N3263       N  0.31908860  0.72406849  0.72899059    -0.82800
H3264       H  0.33534541  0.67651728  0.72820025     0.13000
C3265       C  0.31349012  0.63104019  0.73540608     0.02400
N3266       N  0.25966300  0.63682249  0.73945226    -0.81300
H3267       H  0.24507154  0.68394526  0.74646380     0.17800
C3268       C  0.30827707  0.61516080  0.75560451    -0.26200
C3269       C  0.31872760  0.59110560  0.75740367     0.35900
C3270       C  0.33591945  0.58288838  0.73914338    -0.20200
C3271       C  0.34163954  0.59897354  0.71919743    -0.25400
C3272       C  0.33015611  0.62261826  0.71678252     0.27200
H3273       H  0.29591028  0.62163785  0.77021836     0.13000
N3274       N  0.31269481  0.57551542  0.77835479    -0.82700
H3275       H  0.35502881  0.59299484  0.70530207     0.17800
N3276       N  0.33517791  0.63793935  0.69538985    -0.81300
H3277       H  0.30127370  0.58506328  0.79096623     0.33500
H3278       H  0.30200860  0.56065473  0.77166457     0.38000
H3279       H  0.34776062  0.62903619  0.68341870     0.33400
H3280       H  0.31846157  0.63989506  0.68549041     0.30100
H3281       H  0.24101260  0.64176443  0.74248319     0.33400
H3282       H  0.26036978  0.62831451  0.72192736     0.30100
H3283       H  0.31195459  0.73311538  0.71325985     0.38000
H3284       H  0.33757103  0.71928803  0.72490497     0.33500
C3285       C  0.41831007  0.73966130  0.83480819    -0.20300
C3286       C  0.41658608  0.74087923  0.80847993     0.36000
C3287       C  0.39284718  0.73986826  0.79687338    -0.26200
C3288       C  0.37075602  0.73787044  0.81092892     0.02400
C3289       C  0.37251427  0.73620776  0.83707862     0.27200
C3290       C  0.39609452  0.73690140  0.84862663    -0.25400
N3291       N  0.43877080  0.74278148  0.79354922    -0.82800
H3292       H  0.39150286  0.74098723  0.77675101     0.13000
C3293       C  0.34574614  0.73877218  0.79843491     0.02400
N3294       N  0.35022584  0.73443483  0.85191479    -0.81300
H3295       H  0.39697649  0.73596836  0.86877751     0.17800
C3296       C  0.32898150  0.71880287  0.80119844    -0.26200
C3297       C  0.30462138  0.71988092  0.79125849     0.35900
C3298       C  0.29671737  0.74125821  0.77799256    -0.20200
C3299       C  0.31355008  0.76117833  0.77525171    -0.25400
C3300       C  0.33785596  0.76020241  0.78531324     0.27200
H3301       H  0.33478503  0.70232011  0.81137420     0.13000
N3302       N  0.28807779  0.69925031  0.79481340    -0.82700
H3303       H  0.30768484  0.77757663  0.76497155     0.17800
N3304       N  0.35445736  0.78105098  0.78252979    -0.81300
H3305       H  0.29649150  0.68343936  0.78706148     0.33500
H3306       H  0.28648966  0.69602714  0.81394984     0.38000
H3307       H  0.34590002  0.79528641  0.77228609     0.33400
H3308       H  0.35789028  0.78828317  0.80030583     0.30100
H3309       H  0.35465411  0.73325944  0.87085834     0.33400
H3310       H  0.34015225  0.75100011  0.84954901     0.30100
H3311       H  0.44610825  0.76063107  0.79622748     0.38000
H3312       H  0.43433249  0.74156807  0.77460785     0.33500
C3313       C  0.17065601  0.52157308  0.32108968    -0.20300
C3314       C  0.19279414  0.53549542  0.31909241     0.36000
C3315       C  0.20487645  0.54334286  0.34101802    -0.26200
C3316       C  0.19498152  0.53741466  0.36451087     0.02400
C3317       C  0.17339859  0.52265469  0.36636717     0.27200
C3318       C  0.16138508  0.51497184  0.34458836    -0.25400
N3319       N  0.20182488  0.54303527  0.29503979    -0.82800
H3320       H  0.22122176  0.55516356  0.33984730     0.13000
C3321       C  0.20462403  0.55006743  0.38682852     0.02400
N3322       N  0.16325873  0.51652828  0.39041629    -0.81300
H3323       H  0.14429146  0.50433709  0.34591852     0.17800
C3324       C  0.18956536  0.56837802  0.39769905    -0.26200
C3325       C  0.19765704  0.58158475  0.41853556     0.35900
C3326       C  0.22117929  0.57612135  0.42914587    -0.20200
C3327       C  0.23611693  0.55732996  0.41853104    -0.25400
C3328       C  0.22808819  0.54434139  0.39719230     0.27200
H3329       H  0.17150399  0.57275768  0.38963458     0.13000
N3330       N  0.18194203  0.60070934  0.42869478    -0.82700
H3331       H  0.25441351  0.55347341  0.42627280     0.17800
N3332       N  0.24368163  0.52572645  0.38580246    -0.81300
H3333       H  0.16475376  0.59273017  0.43329266     0.33500
H3334       H  0.17877875  0.61402220  0.41479859     0.38000
H3335       H  0.26050315  0.52396890  0.39555866     0.33400
H3336       H  0.23450336  0.50860617  0.38735076     0.30100
H3337       H  0.14697111  0.50596854  0.38851131     0.33400
H3338       H  0.17627566  0.50523465  0.39957989     0.30100
H3339       H  0.20731881  0.52696008  0.28547352     0.38000
H3340       H  0.21775883  0.55411504  0.29691199     0.33500
C3341       C  0.32597516  0.52444723  0.68024173    -0.20300
C3342       C  0.30847381  0.50781500  0.66954275     0.36000
C3343       C  0.29663202  0.51436217  0.64703970    -0.26200
C3344       C  0.30195310  0.53707267  0.63535617     0.02400
C3345       C  0.31871159  0.55396011  0.64641920     0.27200
C3346       C  0.33057537  0.54744299  0.66870819    -0.25400
N3347       N  0.30377111  0.48391585  0.68073282    -0.82800
H3348       H  0.28344720  0.50169193  0.63844319     0.13000
C3349       C  0.28937158  0.54396797  0.61195977     0.02400
N3350       N  0.32361269  0.57766790  0.63487127    -0.81300
H3351       H  0.34410669  0.56008366  0.67673705     0.17800
C3352       C  0.26761266  0.55832760  0.61349329    -0.26200
C3353       C  0.25846317  0.57088242  0.59249428     0.35900
C3354       C  0.27174756  0.56939788  0.56989041    -0.20200
C3355       C  0.29201612  0.55302760  0.56769195    -0.25400
C3356       C  0.30105754  0.54017725  0.58870379     0.27200
H3357       H  0.25861335  0.56085918  0.63141210     0.13000
N3358       N  0.23636509  0.58601382  0.59423239    -0.82700
H3359       H  0.30155392  0.55133100  0.54999129     0.17800
N3360       N  0.32248593  0.52409064  0.58676834    -0.81300
H3361       H  0.22905264  0.58544847  0.61229296     0.33500
H3362       H  0.22289478  0.57818220  0.58250865     0.38000
H3363       H  0.32868573  0.52323040  0.56830584     0.33400
H3364       H  0.33698640  0.53202525  0.59710185     0.30100
H3365       H  0.33593724  0.58817547  0.64573752     0.33400
H3366       H  0.33268934  0.57427364  0.61796847     0.30100
H3367       H  0.29436918  0.48708135  0.69751082     0.38000
H3368       H  0.29166374  0.47341863  0.66962406     0.33500
C3369       C  0.32396562  0.67013914  0.47531918    -0.20300
C3370       C  0.33222031  0.66942904  0.45044802     0.36000
C3371       C  0.35518724  0.67981922  0.44421527    -0.26200
C3372       C  0.37078205  0.68991732  0.46256901     0.02400
C3373       C  0.36223692  0.69173245  0.48736527     0.27200
C3374       C  0.33855544  0.68217449  0.49343897    -0.25400
N3375       N  0.31768899  0.65749366  0.43152277    -0.82800
H3376       H  0.36132799  0.67911507  0.42497074     0.13000
C3377       C  0.39595955  0.69810049  0.45495789     0.02400
N3378       N  0.37801310  0.70216754  0.50635751    -0.81300
H3379       H  0.33236704  0.68235376  0.51266761     0.17800
C3380       C  0.40298273  0.72299599  0.45853764    -0.26200
C3381       C  0.42423271  0.73266648  0.44672112     0.35900
C3382       C  0.43804519  0.71716237  0.43048031    -0.20200
C3383       C  0.43207717  0.69183024  0.42850772    -0.25400
C3384       C  0.41151345  0.68196815  0.44111695     0.27200
H3385       H  0.39104238  0.73526963  0.46929355     0.13000
N3386       N  0.43050419  0.75858082  0.44947128    -0.82700
H3387       H  0.44279681  0.67994939  0.41616781     0.17800
N3388       N  0.40558267  0.65590066  0.43898121    -0.81300
H3389       H  0.41751953  0.76762807  0.46089437     0.33500
H3390       H  0.44758790  0.75944624  0.45886635     0.38000
H3391       H  0.41880336  0.64669745  0.42795769     0.33400
H3392       H  0.40688759  0.64812208  0.45680810     0.30100
H3393       H  0.36895272  0.70197386  0.52361434     0.33400
H3394       H  0.39365234  0.69058936  0.50809936     0.30100
H3395       H  0.32833273  0.64299989  0.42393799     0.38000
H3396       H  0.31437832  0.67051669  0.41738461     0.33500
C3397       C  0.45452608  0.52362215  0.51175044    -0.20300
C3398       C  0.43341080  0.50835003  0.50763010     0.36000
C3399       C  0.40925790  0.51871780  0.50888582    -0.26200
C3400       C  0.40557606  0.54423126  0.51347561     0.02400
C3401       C  0.42665516  0.55949344  0.51788953     0.27200
C3402       C  0.45083659  0.54894950  0.51738676    -0.25400
N3403       N  0.43660942  0.48238351  0.50171781    -0.82800
H3404       H  0.39315709  0.50691459  0.50575232     0.13000
C3405       C  0.37962760  0.55474587  0.51281123     0.02400
N3406       N  0.42347983  0.58576326  0.52221240    -0.81300
H3407       H  0.46692700  0.56066393  0.52079465     0.17800
C3408       C  0.37028897  0.56781263  0.53349343    -0.26200
C3409       C  0.34651303  0.57901440  0.53292597     0.35900
C3410       C  0.33117990  0.57658243  0.51162161    -0.20200
C3411       C  0.34007648  0.56268021  0.49129458    -0.25400
C3412       C  0.36429621  0.55219600  0.49145533     0.27200
H3413       H  0.38171524  0.56972500  0.55006160     0.13000
N3414       N  0.33806844  0.59307012  0.55401875    -0.82700
H3415       H  0.32871140  0.56130540  0.47463324     0.17800
N3416       N  0.37377295  0.53983335  0.46963474    -0.81300
H3417       H  0.33844017  0.58138560  0.56961267     0.33500
H3418       H  0.35076605  0.60752807  0.55712135     0.38000
H3419       H  0.36034189  0.53970471  0.45548008     0.33400
H3420       H  0.38880070  0.55032369  0.46297232     0.30100
H3421       H  0.44076735  0.59433574  0.52506549     0.33400
H3422       H  0.41599912  0.59356188  0.50596759     0.30100
H3423       H  0.44569811  0.48129096  0.48450555     0.38000
H3424       H  0.41930632  0.47367088  0.49948996     0.33500
C3425       C  0.04667289  0.52625013  0.48652458    -0.20300
C3426       C  0.06837604  0.51407408  0.49508525     0.36000
C3427       C  0.09165896  0.52609183  0.49379014    -0.26200
C3428       C  0.09404043  0.55011667  0.48355779     0.02400
C3429       C  0.07233425  0.56165174  0.47331529     0.27200
C3430       C  0.04893846  0.54985775  0.47552748    -0.25400
N3431       N  0.06662246  0.48985874  0.50621104    -0.82800
H3432       H  0.10790346  0.51680985  0.50152714     0.13000
C3433       C  0.11907829  0.56272920  0.48487662     0.02400
N3434       N  0.07333040  0.58467726  0.45964708    -0.81300
H3435       H  0.03240683  0.55909437  0.46837476     0.17800
C3436       C  0.14060892  0.55034086  0.47614317    -0.26200
C3437       C  0.16461645  0.56112014  0.47833355     0.35900
C3438       C  0.16711168  0.58519986  0.48873771    -0.20200
C3439       C  0.14565196  0.59749437  0.49746364    -0.25400
C3440       C  0.12197547  0.58627061  0.49630270     0.27200
H3441       H  0.13867415  0.53209217  0.46769756     0.13000
N3442       N  0.18622978  0.54806061  0.46926639    -0.82700
H3443       H  0.14737524  0.61574593  0.50598996     0.17800
N3444       N  0.10100615  0.59858866  0.50743150    -0.81300
H3445       H  0.18107039  0.53112961  0.46110674     0.33500
H3446       H  0.19740792  0.54361724  0.48462001     0.38000
H3447       H  0.10493410  0.60129445  0.52633141     0.33400
H3448       H  0.09914907  0.61614859  0.49914551     0.30100
H3449       H  0.06393983  0.59826519  0.47002242     0.33400
H3450       H  0.09163337  0.59069970  0.45689003     0.30100
H3451       H  0.07836639  0.47781030  0.49633607     0.38000
H3452       H  0.07334664  0.49104476  0.52447004     0.33500
C3453       C  0.24300385  0.66512946  0.58297882    -0.20300
C3454       C  0.24032432  0.69136529  0.58426028     0.36000
C3455       C  0.23966221  0.70327280  0.60780071    -0.26200
C3456       C  0.24218929  0.68964490  0.63009884     0.02400
C3457       C  0.24527686  0.66353042  0.62871336     0.27200
C3458       C  0.24533746  0.65165275  0.60533305    -0.25400
N3459       N  0.23746047  0.70575107  0.56183047    -0.82800
H3460       H  0.23714898  0.72330075  0.60878710     0.13000
C3461       C  0.24176112  0.70264832  0.65484884     0.02400
N3462       N  0.24881243  0.64916186  0.65109069    -0.81300
H3463       H  0.24807516  0.63170574  0.60456667     0.17800
C3464       C  0.22459544  0.69502499  0.67313079    -0.26200
C3465       C  0.22486054  0.70525806  0.69729271     0.35900
C3466       C  0.24236588  0.72388837  0.70348956    -0.20200
C3467       C  0.25905856  0.73205241  0.68500497    -0.25400
C3468       C  0.25907320  0.72157968  0.66086457     0.27200
H3469       H  0.21111306  0.68063238  0.66873826     0.13000
N3470       N  0.20771062  0.69611510  0.71553224    -0.82700
H3471       H  0.27248563  0.74641831  0.68963595     0.17800
N3472       N  0.27698546  0.72969911  0.64266324    -0.81300
H3473       H  0.18964575  0.69864135  0.70856637     0.33500
H3474       H  0.21061352  0.67691722  0.71742471     0.38000
H3475       H  0.28829388  0.74378397  0.64998254     0.33400
H3476       H  0.28874000  0.71459782  0.63876708     0.30100
H3477       H  0.25070233  0.63020470  0.64692111     0.33400
H3478       H  0.26567738  0.65477446  0.65915728     0.30100
H3479       H  0.25453485  0.70540171  0.55242979     0.38000
H3480       H  0.23397346  0.72446287  0.56611044     0.33500
C3481       C  0.41755817  0.75752743  0.33797883    -0.20300
C3482       C  0.41590791  0.76279284  0.31225000     0.36000
C3483       C  0.39232489  0.76398312  0.30044582    -0.26200
C3484       C  0.37005629  0.76003907  0.31382200     0.02400
C3485       C  0.37174828  0.75463607  0.33950593     0.27200
C3486       C  0.39524510  0.75377538  0.35133988    -0.25400
N3487       N  0.43806595  0.76745053  0.29810423    -0.82800
H3488       H  0.39140502  0.76803848  0.28067938     0.13000
C3489       C  0.34535240  0.76007608  0.30050917     0.02400
N3490       N  0.34967557  0.74905275  0.35348646    -0.81300
H3491       H  0.39603544  0.74938643  0.37104846     0.17800
C3492       C  0.34148373  0.74342290  0.28070739    -0.26200
C3493       C  0.31837592  0.74191050  0.26831102     0.35900
C3494       C  0.29801713  0.75696690  0.27634949    -0.20200
C3495       C  0.30209413  0.77424855  0.29559212    -0.25400
C3496       C  0.32557958  0.77613353  0.30743748     0.27200
H3497       H  0.35655058  0.73119459  0.27494575     0.13000
N3498       N  0.31622887  0.72444703  0.24804641    -0.82700
H3499       H  0.28695466  0.78631834  0.30147162     0.17800
N3500       N  0.32942911  0.79471935  0.32619529    -0.81300
H3501       H  0.32892136  0.72981871  0.23426618     0.33500
H3502       H  0.29862938  0.72505488  0.23974410     0.38000
H3503       H  0.32587067  0.81216073  0.31821280     0.33400
H3504       H  0.31632179  0.79185260  0.34033756     0.30100
H3505       H  0.35159693  0.73111159  0.36089780     0.33400
H3506       H  0.34856694  0.76161780  0.36834566     0.30100
H3507       H  0.43878230  0.75451952  0.28353503     0.38000
H3508       H  0.43656216  0.78525224  0.29028625     0.33500
C3509       C  0.27732690  0.79567588  0.24284019    -0.20300
C3510       C  0.30032035  0.79981493  0.23072283     0.36000
C3511       C  0.31109278  0.82393762  0.23107971    -0.26200
C3512       C  0.29929219  0.84406532  0.24327991     0.02400
C3513       C  0.27611959  0.83973600  0.25500922     0.27200
C3514       C  0.26566934  0.81569984  0.25503649    -0.25400
N3515       N  0.31280114  0.77948583  0.21851445    -0.82800
H3516       H  0.32885968  0.82703394  0.22196060     0.13000
C3517       C  0.31094542  0.86958681  0.24307174     0.02400
N3518       N  0.26275802  0.85986386  0.26644088    -0.81300
H3519       H  0.24813163  0.81264128  0.26463074     0.17800
C3520       C  0.31727926  0.88085386  0.22025148    -0.26200
C3521       C  0.32817697  0.90485820  0.21928535     0.35900
C3522       C  0.33207539  0.91839369  0.24156927    -0.20200
C3523       C  0.32581950  0.90712130  0.26436000    -0.25400
C3524       C  0.31587810  0.88280669  0.26532740     0.27200
H3525       H  0.31378951  0.87080272  0.20308418     0.13000
N3526       N  0.33486885  0.91567080  0.19570842    -0.82700
H3527       H  0.32978741  0.91679920  0.28165232     0.17800
N3528       N  0.31182437  0.87120151  0.28902819    -0.81300
H3529       H  0.32984623  0.90378417  0.18110858     0.33500
H3530       H  0.35431623  0.91710360  0.19512156     0.38000
H3531       H  0.32889326  0.87060555  0.29849496     0.33400
H3532       H  0.29964561  0.88248620  0.29928198     0.30100
H3533       H  0.24536192  0.86138047  0.25770795     0.33400
H3534       H  0.25968860  0.85522583  0.28512113     0.30100
H3535       H  0.30153904  0.77373803  0.20367380     0.38000
H3536       H  0.32967349  0.78546690  0.21079575     0.33500
C3537       C  0.22376132  0.70267148  0.25967186    -0.20300
C3538       C  0.23776705  0.68051484  0.25634818     0.36000
C3539       C  0.22592763  0.65710493  0.25805518    -0.26200
C3540       C  0.20000261  0.65505619  0.26165488     0.02400
C3541       C  0.18594005  0.67725028  0.26484959     0.27200
C3542       C  0.19806658  0.70064844  0.26458525    -0.25400
N3543       N  0.26396863  0.68187211  0.25069834    -0.82800
H3544       H  0.23698435  0.64029145  0.25602305     0.13000
C3545       C  0.18789373  0.62967908  0.26153109     0.02400
N3546       N  0.15927617  0.67604686  0.26763595    -0.81300
H3547       H  0.18726074  0.71744848  0.26757728     0.17800
C3548       C  0.17150470  0.62281425  0.28085858    -0.26200
C3549       C  0.15893272  0.59964294  0.28078970     0.35900
C3550       C  0.16349517  0.58233759  0.26141285    -0.20200
C3551       C  0.18065879  0.58877702  0.24265574    -0.25400
C3552       C  0.19247117  0.61226899  0.24220463     0.27200
H3553       H  0.16829796  0.63574613  0.29603440     0.13000
N3554       N  0.14202001  0.59351491  0.30064934    -0.82700
H3555       H  0.18412582  0.57575639  0.22759486     0.17800
N3556       N  0.20859343  0.61870130  0.22177327    -0.81300
H3557       H  0.14229633  0.60736827  0.31436580     0.33500
H3558       H  0.12395615  0.59368460  0.29327645     0.38000
H3559       H  0.21009044  0.60388275  0.20919675     0.33400
H3560       H  0.20021947  0.63344828  0.21210055     0.30100
H3561       H  0.15172261  0.69392644  0.26969068     0.33400
H3562       H  0.15194908  0.66883952  0.25106737     0.30100
H3563       H  0.26575824  0.69036312  0.23324503     0.38000
H3564       H  0.27166214  0.66401833  0.24903941     0.33500
C3565       C  0.25886046  0.72347001  0.29724526    -0.20300
C3566       C  0.24057891  0.72914570  0.31535270     0.36000
C3567       C  0.24239415  0.71871988  0.33936272    -0.26200
C3568       C  0.26266844  0.70348300  0.34610103     0.02400
C3569       C  0.28152003  0.69866816  0.32821141     0.27200
C3570       C  0.27910121  0.70822127  0.30386474    -0.25400
N3571       N  0.22011055  0.74541876  0.30916119    -0.82800
H3572       H  0.22770458  0.72223402  0.35278407     0.13000
C3573       C  0.26292982  0.69111126  0.37115253     0.02400
N3574       N  0.30309962  0.68413104  0.33487962    -0.81300
H3575       H  0.29305541  0.70369600  0.29003076     0.17800
C3576       C  0.26592084  0.66518861  0.37221682    -0.26200
C3577       C  0.26529484  0.65216111  0.39490680     0.35900
C3578       C  0.26154331  0.66533857  0.41761466    -0.20200
C3579       C  0.25837725  0.69138541  0.41656531    -0.25400
C3580       C  0.25914527  0.70440141  0.39363585     0.27200
H3581       H  0.26807793  0.65483748  0.35500327     0.13000
N3582       N  0.26794947  0.62545273  0.39467808    -0.82700
H3583       H  0.25545177  0.70166694  0.43369956     0.17800
N3584       N  0.25621589  0.73104763  0.39312991    -0.81300
H3585       H  0.27199281  0.61895894  0.37674750     0.33500
H3586       H  0.25063035  0.61786251  0.39944420     0.38000
H3587       H  0.25349353  0.73800291  0.41113047     0.33400
H3588       H  0.27294970  0.73866416  0.38663125     0.30100
H3589       H  0.31516906  0.68231372  0.31966829     0.33400
H3590       H  0.31285259  0.69402576  0.34855484     0.30100
H3591       H  0.22753419  0.76303658  0.30534295     0.38000
H3592       H  0.20817546  0.74761370  0.32441605     0.33500
C3593       C  0.92386626  0.72655474  0.08095402    -0.20300
C3594       C  0.90286998  0.71825821  0.09477529     0.36000
C3595       C  0.88084848  0.71226437  0.08245666    -0.26200
C3596       C  0.87930366  0.71363527  0.05659078     0.02400
C3597       C  0.89958239  0.72265298  0.04257813     0.27200
C3598       C  0.92166133  0.72955954  0.05501060    -0.25400
N3599       N  0.90371272  0.71545906  0.12134712    -0.82800
H3600       H  0.86526194  0.70494611  0.09308195     0.13000
C3601       C  0.85869934  0.70007541  0.04491230     0.02400
N3602       N  0.89787032  0.72403981  0.01587696    -0.81300
H3603       H  0.93745163  0.73627759  0.04435495     0.17800
C3604       C  0.83667965  0.71243792  0.03799744    -0.26200
C3605       C  0.81588138  0.69884969  0.02946389     0.35900
C3606       C  0.81747280  0.67255650  0.02828543    -0.20200
C3607       C  0.83953683  0.66050779  0.03580763    -0.25400
C3608       C  0.86015763  0.67395862  0.04393335     0.27200
H3609       H  0.83563810  0.73254990  0.03968986     0.13000
N3610       N  0.79304397  0.71150169  0.02317368    -0.82700
H3611       H  0.84087083  0.64036903  0.03526345     0.17800
N3612       N  0.88243087  0.66121129  0.05201536    -0.81300
H3613       H  0.79449862  0.73054188  0.02710807     0.33500
H3614       H  0.79068527  0.71015959  0.00388464     0.38000
H3615       H  0.88024246  0.64188743  0.05072036     0.33400
H3616       H  0.89681418  0.66598881  0.03974929     0.30100
H3617       H  0.91438788  0.73120317  0.00839315     0.33400
H3618       H  0.89616017  0.70585134  0.00907056     0.30100
H3619       H  0.89992211  0.69682738  0.12564830     0.38000
H3620       H  0.88956843  0.72645413  0.12910689     0.33500
C3621       C  0.07080085  0.56696291  0.22203065    -0.20300
C3622       C  0.05840029  0.58270941  0.23910175     0.36000
C3623       C  0.04730962  0.60481642  0.23035062    -0.26200
C3624       C  0.04799857  0.61078738  0.20492724     0.02400
C3625       C  0.05786497  0.59354343  0.18768698     0.27200
C3626       C  0.06978882  0.57209569  0.19650115    -0.25400
N3627       N  0.05902268  0.57730391  0.26534265    -0.82800
H3628       H  0.03948762  0.61806821  0.24346000     0.13000
C3629       C  0.04158396  0.63621649  0.19659627     0.02400
N3630       N  0.05676459  0.59860425  0.16137836    -0.81300
H3631       H  0.07941283  0.56001225  0.18351303     0.17800
C3632       C  0.06001787  0.64984548  0.18411551    -0.26200
C3633       C  0.05419406  0.67213512  0.17209094     0.35900
C3634       C  0.02987781  0.68195932  0.17390227    -0.20200
C3635       C  0.01192979  0.66947182  0.18832474    -0.25400
C3636       C  0.01740144  0.64623489  0.19923245     0.27200
H3637       H  0.07875009  0.64232194  0.18238765     0.13000
N3638       N  0.07273597  0.68402351  0.15704101    -0.82700
H3639       H  0.99303786  0.67670953  0.18917486     0.17800
N3640       N  0.99826239  0.63219376  0.21165152    -0.81300
H3641       H  0.07805333  0.67157516  0.14300398     0.33500
H3642       H  0.08840253  0.68724516  0.16821633     0.38000
H3643       H  0.98143163  0.64211788  0.21169321     0.33400
H3644       H  0.99513747  0.61601201  0.20123703     0.30100
H3645       H  0.06497439  0.58408499  0.15124738     0.33400
H3646       H  0.03791802  0.59901350  0.15629462     0.30100
H3647       H  0.04869820  0.56102397  0.26819115     0.38000
H3648       H  0.04997818  0.59136153  0.27540861     0.33500
C3649       C  0.98714986  0.66483190  0.08600754    -0.20300
C3650       C  0.97274429  0.66095922  0.06428967     0.36000
C3651       C  0.97132994  0.63681115  0.05372219    -0.26200
C3652       C  0.98435152  0.61654362  0.06417592     0.02400
C3653       C  0.99898916  0.62049557  0.08570435     0.27200
C3654       C  0.99986214  0.64443641  0.09660516    -0.25400
N3655       N  0.95911540  0.68133895  0.05342604    -0.82800
H3656       H  0.96035094  0.63382514  0.03701523     0.13000
C3657       C  0.98436012  0.59184670  0.05122566     0.02400
N3658       N  0.01381077  0.60047229  0.09575667    -0.81300
H3659       H  0.01114816  0.64739405  0.11312493     0.17800
C3660       C  0.00101257  0.58805941  0.03144507    -0.26200
C3661       C  0.00245791  0.56498072  0.01912602     0.35900
C3662       C  0.98743149  0.54484589  0.02694181    -0.20200
C3663       C  0.97031691  0.54866913  0.04642270    -0.25400
C3664       C  0.96840557  0.57211908  0.05845311     0.27200
H3665       H  0.01308548  0.60314817  0.02556469     0.13000
N3666       N  0.01941556  0.56199045  0.99867264    -0.82700
H3667       H  0.95850698  0.53336487  0.05224289     0.17800
N3668       N  0.94995892  0.57614544  0.07748448    -0.81300
H3669       H  0.03740040  0.56622946  0.00491633     0.33500
H3670       H  0.01487452  0.57522523  0.98510816     0.38000
H3671       H  0.93931964  0.56003948  0.08014360     0.33400
H3672       H  0.95925270  0.57949708  0.09427245     0.30100
H3673       H  0.02422074  0.60664590  0.11103308     0.33400
H3674       H  0.00170103  0.58678929  0.10248161     0.30100
H3675       H  0.97210093  0.69418529  0.04665033     0.38000
H3676       H  0.94876452  0.67525478  0.03806108     0.33500
C3677       C  0.92173116  0.76510941  0.16738643    -0.20300
C3678       C  0.91866759  0.75821993  0.19266229     0.36000
C3679       C  0.89462278  0.75927284  0.20365636    -0.26200
C3680       C  0.87313455  0.76570115  0.18975669     0.02400
C3681       C  0.87639141  0.77321571  0.16472001     0.27200
C3682       C  0.90046765  0.77346941  0.15421317    -0.25400
N3683       N  0.93969756  0.74984357  0.20707497    -0.82800
H3684       H  0.89252776  0.75422072  0.22308539     0.13000
C3685       C  0.84741466  0.76322508  0.20110902     0.02400
N3686       N  0.85515472  0.77958441  0.14955282    -0.81300
H3687       H  0.90227541  0.77900978  0.13488871     0.17800
C3688       C  0.82931839  0.78215298  0.19788932    -0.26200
C3689       C  0.80469735  0.77960678  0.20686063     0.35900
C3690       C  0.79826081  0.75845051  0.22134320    -0.20200
C3691       C  0.81641309  0.73986004  0.22496376    -0.25400
C3692       C  0.84038592  0.74148781  0.21431143     0.27200
H3693       H  0.83416770  0.79901762  0.18791888     0.13000
N3694       N  0.78676647  0.79846633  0.20028249    -0.82700
H3695       H  0.81182564  0.72389447  0.23640391     0.17800
N3696       N  0.85744857  0.72087360  0.21656154    -0.81300
H3697       H  0.79213568  0.81510507  0.20888613     0.33500
H3698       H  0.76891860  0.79398216  0.20664867     0.38000
H3699       H  0.84943857  0.70637318  0.22682777     0.33400
H3700       H  0.86059662  0.71388290  0.19864022     0.30100
H3701       H  0.86071692  0.78493422  0.13166549     0.33400
H3702       H  0.84436476  0.76348557  0.14744716     0.30100
H3703       H  0.94502127  0.73241355  0.20013209     0.38000
H3704       H  0.93450438  0.74688994  0.22562492     0.33500
C3705       C  0.08652894  0.73988111  0.15869559    -0.20300
C3706       C  0.10971207  0.74112458  0.14611092     0.36000
C3707       C  0.13220445  0.73966533  0.15976527    -0.26200
C3708       C  0.13234090  0.73688744  0.18582647     0.02400
C3709       C  0.10913072  0.73543794  0.19840375     0.27200
C3710       C  0.08659563  0.73738987  0.18479391    -0.25400
N3711       N  0.11042811  0.74473720  0.11957831    -0.82800
H3712       H  0.14982285  0.74144205  0.15002478     0.13000
C3713       C  0.15686312  0.73706190  0.19962078     0.02400
N3714       N  0.10849819  0.73171924  0.22493259    -0.81300
H3715       H  0.06892389  0.73632949  0.19456117     0.17800
C3716       C  0.16031153  0.75380561  0.21946788    -0.26200
C3717       C  0.18324634  0.75576433  0.23205319     0.35900
C3718       C  0.20392210  0.74112416  0.22420244    -0.20200
C3719       C  0.20050757  0.72404331  0.20466461    -0.25400
C3720       C  0.17717984  0.72165232  0.19250047     0.27200
H3721       H  0.14506660  0.76585111  0.22512024     0.13000
N3722       N  0.18468599  0.77279343  0.25274328    -0.82700
H3723       H  0.21612469  0.71252540  0.19893283     0.17800
N3724       N  0.17402216  0.70353683  0.17301817    -0.81300
H3725       H  0.17233107  0.76646688  0.26641724     0.33500
H3726       H  0.20234464  0.77288264  0.26096937     0.38000
H3727       H  0.19064642  0.69375915  0.16998229     0.33400
H3728       H  0.16090667  0.69049950  0.17919785     0.30100
H3729       H  0.09006755  0.73108546  0.23132815     0.33400
H3730       H  0.11635212  0.71423631  0.22862321     0.30100
H3731       H  0.10304779  0.76241358  0.11583758     0.38000
H3732       H  0.12884821  0.74491617  0.11312927     0.33500
C3733       C  0.17895272  0.82459386  0.02521700    -0.20300
C3734       C  0.16923497  0.80773306  0.00731885     0.36000
C3735       C  0.14670595  0.79528030  0.01233839    -0.26200
C3736       C  0.13413208  0.79923099  0.03481346     0.02400
C3737       C  0.14445042  0.81491915  0.05304463     0.27200
C3738       C  0.16640475  0.82785234  0.04790966    -0.25400
N3739       N  0.18127155  0.80449904  0.98358790    -0.82800
H3740       H  0.13861844  0.78294627  0.99853286     0.13000
C3741       C  0.10985442  0.78743925  0.03938703     0.02400
N3742       N  0.13230215  0.81807860  0.07664023    -0.81300
H3743       H  0.17314165  0.84117579  0.06142416     0.17800
C3744       C  0.10936856  0.76275869  0.04784673    -0.26200
C3745       C  0.08781143  0.75318829  0.05910868     0.35900
C3746       C  0.06693978  0.76888113  0.06215679    -0.20200
C3747       C  0.06634472  0.79224122  0.05066520    -0.25400
C3748       C  0.08780532  0.80185123  0.03927561     0.27200
H3749       H  0.12630180  0.75166752  0.04733776     0.13000
N3750       N  0.08757358  0.72833396  0.06913856    -0.82700
H3751       H  0.04969001  0.80353708  0.05196385     0.17800
N3752       N  0.08761118  0.82640935  0.02845678    -0.81300
H3753       H  0.10462659  0.71941811  0.06577956     0.33500
H3754       H  0.07400041  0.71826007  0.05941750     0.38000
H3755       H  0.06969986  0.83416429  0.02936203     0.33400
H3756       H  0.09911741  0.83787888  0.03920400     0.30100
H3757       H  0.14486060  0.81280967  0.09062495     0.33400
H3758       H  0.12824764  0.83701748  0.07896408     0.30100
H3759       H  0.19807164  0.79506112  0.98677390     0.38000
H3760       H  0.17065188  0.79294270  0.97202241     0.33500
C3761       C  0.32119304  0.82709143  0.97796424    -0.20300
C3762       C  0.34294685  0.82875168  0.99265149     0.36000
C3763       C  0.36481759  0.81717771  0.98441589    -0.26200
C3764       C  0.36491859  0.80367910  0.96218447     0.02400
C3765       C  0.34261809  0.80005771  0.94866026     0.27200
C3766       C  0.32070826  0.81188199  0.95680956    -0.25400
N3767       N  0.34291580  0.84297383  0.01535432    -0.82800
H3768       H  0.38206268  0.81952115  0.99473972     0.13000
C3769       C  0.38900473  0.79616359  0.95172516     0.02400
N3770       N  0.34256074  0.78505268  0.92644152    -0.81300
H3771       H  0.30362921  0.81018641  0.94611176     0.17800
C3772       C  0.39857926  0.77249163  0.95697273    -0.26200
C3773       C  0.42053899  0.76418021  0.94539538     0.35900
C3774       C  0.43230261  0.77973983  0.92764418    -0.20200
C3775       C  0.42357760  0.80412829  0.92393881    -0.25400
C3776       C  0.40212926  0.81263614  0.93612114     0.27200
H3777       H  0.38858618  0.76035965  0.96966021     0.13000
N3778       N  0.43003097  0.73961493  0.95055871    -0.82700
H3779       H  0.43301046  0.81624550  0.91081400     0.17800
N3780       N  0.39333813  0.83774244  0.93246192    -0.81300
H3781       H  0.41836306  0.73027094  0.96306739     0.33500
H3782       H  0.44714567  0.74176265  0.95969735     0.38000
H3783       H  0.40550168  0.84760500  0.92085776     0.33400
H3784       H  0.37620692  0.83684916  0.92315831     0.30100
H3785       H  0.32456780  0.78411443  0.91891780     0.33400
H3786       H  0.35366149  0.79398835  0.91315437     0.30100
H3787       H  0.33078155  0.83415435  0.02779629     0.38000
H3788       H  0.36058904  0.84274569  0.02365194     0.33500
C3789       C  0.27592812  0.92438004  0.07445882    -0.20300
C3790       C  0.26586119  0.94851471  0.07855644     0.36000
C3791       C  0.27251133  0.96163685  0.10026440    -0.26200
C3792       C  0.28889346  0.95112162  0.11766437     0.02400
C3793       C  0.29934775  0.92745566  0.11342933     0.27200
C3794       C  0.29278898  0.91435678  0.09193562    -0.25400
N3795       N  0.24884788  0.95955282  0.06097873    -0.82800
H3796       H  0.26513785  0.98017904  0.10356038     0.13000
C3797       C  0.29748698  0.96571285  0.13913414     0.02400
N3798       N  0.31664830  0.91686525  0.13106018    -0.81300
H3799       H  0.30078722  0.89601002  0.08906568     0.17800
C3800       C  0.28859667  0.95980986  0.16303772    -0.26200
C3801       C  0.30137798  0.96810262  0.18435846     0.35900
C3802       C  0.32355359  0.98170967  0.18124443    -0.20200
C3803       C  0.33099710  0.98949507  0.15747819    -0.25400
C3804       C  0.31812028  0.98162292  0.13626525     0.27200
H3805       H  0.27266779  0.94752837  0.16496133     0.13000
N3806       N  0.29301414  0.96138394  0.20889228    -0.82700
H3807       H  0.34766347  0.00072852  0.15542864     0.17800
N3808       N  0.32673307  0.98845890  0.11180248    -0.81300
H3809       H  0.27667376  0.95079752  0.20782883     0.33500
H3810       H  0.28831810  0.97786711  0.21820525     0.38000
H3811       H  0.34202657  0.00049617  0.11305312     0.33400
H3812       H  0.33318995  0.97230866  0.10297299     0.30100
H3813       H  0.32227960  0.89905534  0.12543715     0.33400
H3814       H  0.33269884  0.92794022  0.13109949     0.30100
H3815       H  0.25881423  0.96297448  0.04458600     0.38000
H3816       H  0.24261146  0.97690606  0.06734626     0.33500
C3817       C  0.17411028  0.97038196  0.81796115    -0.20300
C3818       C  0.18690344  0.98755884  0.83327245     0.36000
C3819       C  0.19792949  0.97911621  0.85540637    -0.26200
C3820       C  0.19702838  0.95387077  0.86197531     0.02400
C3821       C  0.18606879  0.93643667  0.84550816     0.27200
C3822       C  0.17418784  0.94500092  0.82389016    -0.25400
N3823       N  0.18701534  0.01371130  0.82729793    -0.82800
H3824       H  0.20620586  0.99243301  0.86813942     0.13000
C3825       C  0.20508893  0.94623547  0.88718914     0.02400
N3826       N  0.18642231  0.91023577  0.85124684    -0.81300
H3827       H  0.16444008  0.93195618  0.81192173     0.17800
C3828       C  0.18807532  0.93310064  0.90192741    -0.26200
C3829       C  0.19534067  0.92283752  0.92462775     0.35900
C3830       C  0.21983970  0.92662002  0.93348534    -0.20200
C3831       C  0.23614851  0.94200852  0.92002138    -0.25400
C3832       C  0.22913899  0.95154324  0.89659194     0.27200
H3833       H  0.16925711  0.92980103  0.89523379     0.13000
N3834       N  0.17805963  0.90755031  0.93802874    -0.82700
H3835       H  0.25507022  0.94469398  0.92665677     0.17800
N3836       N  0.24667650  0.96542133  0.88184293    -0.81300
H3837       H  0.16196309  0.91811577  0.94131673     0.33500
H3838       H  0.17306814  0.89255774  0.92661590     0.38000
H3839       H  0.26351408  0.96762954  0.89146828     0.33400
H3840       H  0.25068296  0.95486990  0.86594874     0.30100
H3841       H  0.17737767  0.90002918  0.83730510     0.33400
H3842       H  0.20507221  0.90443772  0.85122016     0.30100
H3843       H  0.19795739  0.01598982  0.81133314     0.38000
H3844       H  0.19582539  0.02392507  0.84137516     0.33500
C3845       C  0.25979747  0.83483196  0.91893784    -0.20300
C3846       C  0.27912527  0.83956652  0.90156577     0.36000
C3847       C  0.27898171  0.82747424  0.87814968    -0.26200
C3848       C  0.25940914  0.81150587  0.87101825     0.02400
C3849       C  0.23982215  0.80723175  0.88826169     0.27200
C3850       C  0.24059776  0.81837021  0.91210904    -0.25400
N3851       N  0.29871141  0.85687089  0.90757048    -0.82800
H3852       H  0.29425366  0.83063725  0.86531816     0.13000
C3853       C  0.25965807  0.79925406  0.84568591     0.02400
N3854       N  0.21873515  0.79222462  0.88123528    -0.81300
H3855       H  0.22537926  0.81515676  0.92500984     0.17800
C3856       C  0.25494942  0.77356666  0.84368451    -0.26200
C3857       C  0.25308983  0.76156893  0.82046245     0.35900
C3858       C  0.25783194  0.77510597  0.79816157    -0.20200
C3859       C  0.26351987  0.80062590  0.80016005    -0.25400
C3860       C  0.26380173  0.81285225  0.82347433     0.27200
H3861       H  0.25187269  0.76269179  0.86042041     0.13000
N3862       N  0.24482317  0.73607527  0.82048457    -0.82700
H3863       H  0.26690320  0.81137282  0.78340363     0.17800
N3864       N  0.26725168  0.83930605  0.82434981    -0.81300
H3865       H  0.25836226  0.72544396  0.82962371     0.33500
H3866       H  0.24270299  0.72885504  0.80256360     0.38000
H3867       H  0.28438630  0.84342768  0.81599373     0.33400
H3868       H  0.25314949  0.84761783  0.81369599     0.30100
H3869       H  0.20593353  0.79098071  0.89588680     0.33400
H3870       H  0.20957279  0.80135718  0.86662241     0.30100
H3871       H  0.30880509  0.84959441  0.92256357     0.38000
H3872       H  0.31126721  0.85848336  0.89274550     0.33500
C3873       C  0.24134785  0.83077302  0.08286837    -0.20300
C3874       C  0.26255215  0.81831502  0.09240133     0.36000
C3875       C  0.26125044  0.80664672  0.11592006    -0.26200
C3876       C  0.23903144  0.80654631  0.12996113     0.02400
C3877       C  0.21762342  0.81832158  0.11991270     0.27200
C3878       C  0.21931321  0.83098839  0.09697720    -0.25400
N3879       N  0.28564357  0.81850213  0.07872867    -0.82800
H3880       H  0.27793073  0.79820444  0.12365867     0.13000
C3881       C  0.23891757  0.79506984  0.15548401     0.02400
N3882       N  0.19421009  0.81731488  0.13296090    -0.81300
H3883       H  0.20332688  0.84117414  0.09011312     0.17800
C3884       C  0.22927523  0.80847584  0.17595891    -0.26200
C3885       C  0.23011988  0.79864123  0.20031049     0.35900
C3886       C  0.24170421  0.77547013  0.20462211    -0.20200
C3887       C  0.25069471  0.76178977  0.18420939    -0.25400
C3888       C  0.24911438  0.77115511  0.15981219     0.27200
H3889       H  0.22128850  0.82683422  0.17314204     0.13000
N3890       N  0.21887530  0.81205660  0.22044616    -0.82700
H3891       H  0.25897080  0.74357395  0.18726354     0.17800
N3892       N  0.25750857  0.75607896  0.13942418    -0.81300
H3893       H  0.19991720  0.81430391  0.21635072     0.33500
H3894       H  0.22691162  0.82980044  0.22111482     0.38000
H3895       H  0.27631981  0.75173616  0.14240204     0.33400
H3896       H  0.24739316  0.73942030  0.13964702     0.30100
H3897       H  0.18035214  0.82689404  0.12307120     0.33400
H3898       H  0.18867723  0.79863740  0.13359951     0.30100
H3899       H  0.29188708  0.83695674  0.07793488     0.38000
H3900       H  0.29938716  0.80839282  0.08822735     0.33500
C3901       C  0.33195265  0.91844451  0.01161371    -0.20300
C3902       C  0.33476973  0.94162731  0.02373233     0.36000
C3903       C  0.35862324  0.95291648  0.02479085    -0.26200
C3904       C  0.37964258  0.94156290  0.01376624     0.02400
C3905       C  0.37671262  0.91837153  0.00168949     0.27200
C3906       C  0.35305879  0.90700769  0.00099781    -0.25400
N3907       N  0.31369225  0.95315192  0.03563210    -0.82800
H3908       H  0.36086363  0.97064762  0.03421063     0.13000
C3909       C  0.40446656  0.95435820  0.01384109     0.02400
N3910       N  0.39773948  0.90662694  0.98979648    -0.81300
H3911       H  0.35095256  0.88924350  0.99160949     0.17800
C3912       C  0.42541878  0.94236775  0.02430317    -0.26200
C3913       C  0.44949329  0.95272236  0.02229396     0.35900
C3914       C  0.45286438  0.97535552  0.00950822    -0.20200
C3915       C  0.43189452  0.98778554  0.99982890    -0.25400
C3916       C  0.40776468  0.97755425  0.00182225     0.27200
H3917       H  0.42310214  0.92467804  0.03377894     0.13000
N3918       N  0.47043047  0.94019955  0.03320147    -0.82700
H3919       H  0.43448955  0.00541173  0.99029468     0.17800
N3920       N  0.38669949  0.99034631  0.99115793    -0.81300
H3921       H  0.46693537  0.93821872  0.05226535     0.33500
H3922       H  0.47151198  0.92233745  0.02545406     0.38000
H3923       H  0.39225132  0.00722482  0.98317285     0.33400
H3924       H  0.37981057  0.97930263  0.97663655     0.30100
H3925       H  0.39253044  0.88961207  0.98182638     0.33400
H3926       H  0.40342660  0.91814051  0.97513851     0.30100
H3927       H  0.30104722  0.95825859  0.02168892     0.38000
H3928       H  0.31905586  0.96961401  0.04459365     0.33500
C3929       C  0.07243488  0.93550041  0.71802721    -0.20300
C3930       C  0.07410745  0.92646383  0.69345899     0.36000
C3931       C  0.06184184  0.90447836  0.68696946    -0.26200
C3932       C  0.04907581  0.89034134  0.70489596     0.02400
C3933       C  0.04641245  0.89987395  0.72922926     0.27200
C3934       C  0.05756008  0.92275742  0.73541271    -0.25400
N3935       N  0.08930585  0.93880816  0.67532352    -0.82800
H3936       H  0.06372582  0.89751627  0.66808581     0.13000
C3937       C  0.04173400  0.86460234  0.69798858     0.02400
N3938       N  0.03409703  0.88563129  0.74813138    -0.81300
H3939       H  0.05656102  0.92928596  0.75450901     0.17800
C3940       C  0.05979908  0.84955204  0.68643892    -0.26200
C3941       C  0.05318091  0.82744764  0.67444736     0.35900
C3942       C  0.02828780  0.81910203  0.67537620    -0.20200
C3943       C  0.01059224  0.83290317  0.68896959    -0.25400
C3944       C  0.01696695  0.85595840  0.69969138     0.27200
H3945       H  0.07898282  0.85587501  0.68523187     0.13000
N3946       N  0.07160676  0.81423631  0.66029444    -0.82700
H3947       H  0.99125856  0.82697277  0.68930263     0.17800
N3948       N  0.99792684  0.87125219  0.71055634    -0.81300
H3949       H  0.07814371  0.82614053  0.64632017     0.33500
H3950       H  0.08663420  0.81024477  0.67209120     0.38000
H3951       H  0.98432880  0.87467943  0.69698070     0.33400
H3952       H  0.98958508  0.86113839  0.72497368     0.30100
H3953       H  0.04687064  0.88228628  0.76250874     0.33400
H3954       H  0.01957775  0.89649897  0.75535621     0.30100
H3955       H  0.10321263  0.92636701  0.66957503     0.38000
H3956       H  0.07814146  0.94278601  0.65982599     0.33500
C3957       C  0.97113353  0.68162329  0.67597315    -0.20300
C3958       C  0.94808053  0.66944517  0.67260348     0.36000
C3959       C  0.94274460  0.64803498  0.68642918    -0.26200
C3960       C  0.96015667  0.63830748  0.70331828     0.02400
C3961       C  0.98278179  0.65086361  0.70763515     0.27200
C3962       C  0.98794193  0.67269430  0.69408610    -0.25400
N3963       N  0.93021092  0.67848797  0.65486646    -0.82800
H3964       H  0.92523629  0.63838926  0.68332156     0.13000
C3965       C  0.95451439  0.61403363  0.71474336     0.02400
N3966       N  0.00086446  0.64074122  0.72468861    -0.81300
H3967       H  0.00577608  0.68186594  0.69661020     0.17800
C3968       C  0.95907291  0.59235934  0.70078830    -0.26200
C3969       C  0.94767188  0.56969182  0.70724551     0.35900
C3970       C  0.93158321  0.56901166  0.72790371    -0.20200
C3971       C  0.92910544  0.59005097  0.74322238    -0.25400
C3972       C  0.94019077  0.61276902  0.73665109     0.27200
H3973       H  0.97012938  0.59357297  0.68391666     0.13000
N3974       N  0.95138174  0.54779638  0.69233287    -0.82700
H3975       H  0.91687525  0.58924918  0.75928974     0.17800
N3976       N  0.93525398  0.63495871  0.75087416    -0.81300
H3977       H  0.96349419  0.55154697  0.67752614     0.33500
H3978       H  0.96018184  0.53443649  0.70350812     0.38000
H3979       H  0.92343521  0.63099384  0.76585887     0.33400
H3980       H  0.95214103  0.64089602  0.75858698     0.30100
H3981       H  0.01683802  0.65191600  0.72514353     0.33400
H3982       H  0.99318268  0.64140731  0.74256548     0.30100
H3983       H  0.92679109  0.66429781  0.64194338     0.38000
H3984       H  0.91353250  0.68217180  0.66430515     0.33500
C3985       C  0.06961080  0.72024188  0.57529595    -0.20300
C3986       C  0.07987188  0.69632068  0.57905070     0.36000
C3987       C  0.10265863  0.69017617  0.56811126    -0.26200
C3988       C  0.11591735  0.70770960  0.55403450     0.02400
C3989       C  0.10512259  0.73115976  0.54891543     0.27200
C3990       C  0.08175995  0.73708547  0.55934515    -0.25400
N3991       N  0.06762948  0.67844232  0.59464484    -0.82800
H3992       H  0.11051426  0.67181130  0.57139215     0.13000
C3993       C  0.14113540  0.70079411  0.54527528     0.02400
N3994       N  0.11838005  0.74916848  0.53417192    -0.81300
H3995       H  0.07401804  0.75556864  0.55659804     0.17800
C3996       C  0.14619299  0.70042622  0.51964841    -0.26200
C3997       C  0.16798759  0.68906898  0.51054026     0.35900
C3998       C  0.18443364  0.67740535  0.52747172    -0.20200
C3999       C  0.18015690  0.67920963  0.55312059    -0.25400
C4000       C  0.15900894  0.69149558  0.56226441     0.27200
H4001       H  0.13243680  0.70763670  0.50668494     0.13000
N4002       N  0.17235056  0.68740106  0.48415249    -0.82700
H4003       H  0.19275517  0.67006295  0.56599596     0.17800
N4004       N  0.15496857  0.69361499  0.58868601    -0.81300
H4005       H  0.15782672  0.69593203  0.47426959     0.33500
H4006       H  0.18844850  0.69767583  0.48023734     0.38000
H4007       H  0.16984726  0.68570019  0.59856176     0.33400
H4008       H  0.15484501  0.71261538  0.59308734     0.30100
H4009       H  0.10785261  0.76550248  0.53224174     0.33400
H4010       H  0.13456879  0.75401685  0.54392269     0.30100
H4011       H  0.06456109  0.66232621  0.58411508     0.38000
H4012       H  0.07972403  0.67381941  0.60924992     0.33500
C4013       C  0.93287826  0.77777099  0.57130124    -0.20300
C4014       C  0.91654356  0.76047513  0.55999844     0.36000
C4015       C  0.89457085  0.76918156  0.54860546    -0.26200
C4016       C  0.88918687  0.79474257  0.54791195     0.02400
C4017       C  0.90690884  0.81205800  0.55683039     0.27200
C4018       C  0.92834628  0.80335300  0.56897890    -0.25400
N4019       N  0.92126209  0.73414184  0.56197256    -0.82800
H4020       H  0.88097314  0.75598734  0.54158858     0.13000
C4021       C  0.86391373  0.80335082  0.54092433     0.02400
N4022       N  0.90239917  0.83840697  0.55446363    -0.81300
H4023       H  0.94104433  0.81651843  0.57754776     0.17800
C4024       C  0.85073654  0.81769874  0.55832646    -0.26200
C4025       C  0.82887471  0.83013266  0.55164208     0.35900
C4026       C  0.81924712  0.82735067  0.52737137    -0.20200
C4027       C  0.83089251  0.81070746  0.51076744    -0.25400
C4028       C  0.85348620  0.79889833  0.51720506     0.27200
H4029       H  0.85825991  0.82040510  0.57690119     0.13000
N4030       N  0.81711384  0.84632821  0.56932403    -0.82700
H4031       H  0.82350063  0.80849488  0.49209022     0.17800
N4032       N  0.86639627  0.78350457  0.49944648    -0.81300
H4033       H  0.81322972  0.83591737  0.58533042     0.33500
H4034       H  0.82990449  0.86017940  0.57428106     0.38000
H4035       H  0.85616782  0.78218735  0.48288988     0.33400
H4036       H  0.88317383  0.79238393  0.49498560     0.30100
H4037       H  0.91715070  0.84859365  0.56215136     0.33400
H4038       H  0.90202369  0.84260474  0.53543532     0.30100
H4039       H  0.93724206  0.73022969  0.55149047     0.38000
H4040       H  0.90674382  0.72398786  0.55381440     0.33500
C4041       C  0.08263313  0.75562110  0.66678494    -0.20300
C4042       C  0.08452984  0.76197223  0.69219985     0.36000
C4043       C  0.10822022  0.76294775  0.70372205    -0.26200
C4044       C  0.13015251  0.75730570  0.69034902     0.02400
C4045       C  0.12800592  0.74978504  0.66525606     0.27200
C4046       C  0.10450961  0.74949564  0.65364110    -0.25400
N4047       N  0.06261856  0.76839683  0.70607404    -0.82800
H4048       H  0.10951541  0.76841423  0.72312310     0.13000
C4049       C  0.15507248  0.75832464  0.70294904     0.02400
N4050       N  0.14958314  0.74167326  0.65168557    -0.81300
H4051       H  0.10333738  0.74393739  0.63424152     0.17800
C4052       C  0.15903458  0.74424548  0.72464802    -0.26200
C4053       C  0.18266932  0.74323189  0.73611308     0.35900
C4054       C  0.20293132  0.75626323  0.72547335    -0.20200
C4055       C  0.19893025  0.77091538  0.70421219    -0.25400
C4056       C  0.17508185  0.77247833  0.69312119     0.27200
H4057       H  0.14376861  0.73344058  0.73228182     0.13000
N4058       N  0.18657045  0.72781291  0.75771825    -0.82700
H4059       H  0.21443763  0.78116117  0.69631740     0.17800
N4060       N  0.17104219  0.78847514  0.67200184    -0.81300
H4061       H  0.17001326  0.71886668  0.76280812     0.33500
H4062       H  0.19142605  0.73940067  0.77257805     0.38000
H4063       H  0.15835906  0.80230386  0.67740559     0.33400
H4064       H  0.18756015  0.79760596  0.66711242     0.30100
H4065       H  0.14655110  0.72332286  0.64584339     0.33400
H4066       H  0.15126499  0.75281814  0.63578222     0.30100
H4067       H  0.06144143  0.75634047  0.72134119     0.38000
H4068       H  0.06484388  0.78652204  0.71289437     0.33500
C4069       C  0.00988745  0.66699382  0.58285666    -0.20300
C4070       C  0.01172139  0.66610081  0.55661791     0.36000
C4071       C  0.01331441  0.64285863  0.54429331    -0.26200
C4072       C  0.01314376  0.62023991  0.55766087     0.02400
C4073       C  0.01207157  0.62115808  0.58395482     0.27200
C4074       C  0.01065949  0.64438014  0.59617553    -0.25400
N4075       N  0.01238360  0.68869956  0.54242065    -0.82800
H4076       H  0.01453128  0.64247067  0.52413597     0.13000
C4077       C  0.01279682  0.59569386  0.54417934     0.02400
N4078       N  0.01171734  0.59842969  0.59818125    -0.81300
H4079       H  0.00938488  0.64472508  0.61632639     0.17800
C4080       C  0.03095291  0.57740065  0.54938155    -0.26200
C4081       C  0.02957306  0.55330807  0.53885753     0.35900
C4082       C  0.00976181  0.54716813  0.52257741    -0.20200
C4083       C  0.99197776  0.56566799  0.51698658    -0.25400
C4084       C  0.99332097  0.58967359  0.52755070     0.27200
H4085       H  0.04609891  0.58171052  0.56206611     0.13000
N4086       N  0.04805418  0.53511830  0.54526346    -0.82700
H4087       H  0.97670158  0.56133345  0.50445854     0.17800
N4088       N  0.97434065  0.60767205  0.52195786    -0.81300
H4089       H  0.04787227  0.53292558  0.56462400     0.33500
H4090       H  0.06551527  0.54232443  0.54041449     0.38000
H4091       H  0.97415117  0.61046158  0.50267379     0.33400
H4092       H  0.95709669  0.60016699  0.52712741     0.30100
H4093       H  0.01102463  0.60226870  0.61728541     0.33400
H4094       H  0.99523438  0.58898701  0.59379092     0.30100
H4095       H  0.99763800  0.68830726  0.52964975     0.38000
H4096       H  0.02911565  0.68900584  0.53238338     0.33500
C4097       C  0.91631031  0.74357650  0.66471763    -0.20300
C4098       C  0.91367926  0.73326986  0.68880344     0.36000
C4099       C  0.88970789  0.73195692  0.69979861    -0.26200
C4100       C  0.86850067  0.74146423  0.68753854     0.02400
C4101       C  0.87138411  0.75288663  0.66402632     0.27200
C4102       C  0.89507998  0.75324213  0.65264710    -0.25400
N4103       N  0.93510693  0.72346720  0.70164058    -0.82800
H4104       H  0.88754064  0.72369298  0.71809931     0.13000
C4105       C  0.84361978  0.74082303  0.70006736     0.02400
N4106       N  0.85049773  0.76509567  0.65230792    -0.81300
H4107       H  0.89713663  0.76168383  0.63440164     0.17800
C4108       C  0.83803129  0.75893069  0.71807183    -0.26200
C4109       C  0.81444226  0.75979936  0.72963232     0.35900
C4110       C  0.79568506  0.74272854  0.72247242    -0.20200
C4111       C  0.80143853  0.72413227  0.70496908    -0.25400
C4112       C  0.82536867  0.72279687  0.69392033     0.27200
H4113       H  0.85216248  0.77248178  0.72306820     0.13000
N4114       N  0.80932482  0.77810405  0.74854853    -0.82700
H4115       H  0.78724969  0.71063529  0.70001571     0.17800
N4116       N  0.83142943  0.70280527  0.67710869    -0.81300
H4117       H  0.82489974  0.78945833  0.75147641     0.33500
H4118       H  0.80615412  0.76860292  0.76525715     0.38000
H4119       H  0.81622283  0.69076458  0.67512763     0.33400
H4120       H  0.83475097  0.71040943  0.65951273     0.30100
H4121       H  0.85596490  0.77343926  0.63556032     0.33400
H4122       H  0.83728764  0.75159111  0.64766072     0.30100
H4123       H  0.94686149  0.73842013  0.70583387     0.38000
H4124       H  0.92984284  0.71562071  0.71868926     0.33500
C4125       C  0.95392316  0.97442873  0.48831215    -0.20300
C4126       C  0.95028280  0.94898482  0.48267411     0.36000
C4127       C  0.92579713  0.93937410  0.48170211    -0.26200
C4128       C  0.90477769  0.95486081  0.48504067     0.02400
C4129       C  0.90852817  0.98058522  0.48925517     0.27200
C4130       C  0.93293583  0.98989556  0.49133642    -0.25400
N4131       N  0.97132146  0.93296669  0.47818049    -0.82800
H4132       H  0.92311919  0.91960086  0.47860510     0.13000
C4133       C  0.87910094  0.94379262  0.48510602     0.02400
N4134       N  0.88753457  0.99720273  0.49141843    -0.81300
H4135       H  0.93567634  0.00944977  0.49562358     0.17800
C4136       C  0.86269251  0.94927100  0.50484810    -0.26200
C4137       C  0.83867282  0.93869016  0.50614895     0.35900
C4138       C  0.83124536  0.92115116  0.48795510    -0.20200
C4139       C  0.84766614  0.91560434  0.46826224    -0.25400
C4140       C  0.87108236  0.92731253  0.46618873     0.27200
H4141       H  0.86881147  0.96159708  0.51962437     0.13000
N4142       N  0.82242433  0.94473221  0.52661119    -0.82700
H4143       H  0.84204203  0.90220661  0.45422144     0.17800
N4144       N  0.88669316  0.92257327  0.44491081    -0.81300
H4145       H  0.83133368  0.95672124  0.53913935     0.33500
H4146       H  0.80731565  0.95475586  0.51935580     0.38000
H4147       H  0.87804982  0.91007331  0.43270241     0.33400
H4148       H  0.88860281  0.93937771  0.43520926     0.30100
H4149       H  0.89349808  0.01547772  0.49462164     0.33400
H4150       H  0.87827413  0.99728432  0.47424969     0.30100
H4151       H  0.98002774  0.93909880  0.46190334     0.38000
H4152       H  0.96544700  0.91469438  0.47479349     0.33500
C4153       C  0.16829090  0.07986545  0.50819864    -0.20300
C4154       C  0.16668549  0.05358607  0.50943318     0.36000
C4155       C  0.14291805  0.04217353  0.51021797    -0.26200
C4156       C  0.12083928  0.05644092  0.50892691     0.02400
C4157       C  0.12260353  0.08260111  0.50691847     0.27200
C4158       C  0.14612152  0.09392566  0.50703189    -0.25400
N4159       N  0.18896175  0.03864183  0.51051876    -0.82800
H4160       H  0.14158910  0.02208229  0.51183944     0.13000
C4161       C  0.09583280  0.04422560  0.50946298     0.02400
N4162       N  0.10044589  0.09762746  0.50437059    -0.81300
H4163       H  0.14707982  0.11405505  0.50553619     0.17800
C4164       C  0.07772717  0.05297409  0.52630896    -0.26200
C4165       C  0.05298673  0.04452325  0.52534060     0.35900
C4166       C  0.04622687  0.02615043  0.50788165    -0.20200
C4167       C  0.06453077  0.01650991  0.49179557    -0.25400
C4168       C  0.08918146  0.02553015  0.49215965     0.27200
H4169       H  0.08266636  0.06710149  0.53988239     0.13000
N4170       N  0.03483436  0.05521249  0.54168874    -0.82700
H4171       H  0.05934087  0.00220765  0.47849088     0.17800
N4172       N  0.10721671  0.01625894  0.47460772    -0.81300
H4173       H  0.04109850  0.05282292  0.55999683     0.33500
H4174       H  0.03409123  0.07438176  0.53816636     0.38000
H4175       H  0.09934172  0.00243079  0.46334676     0.33400
H4176       H  0.11202834  0.03099019  0.46279406     0.30100
H4177       H  0.10493905  0.11656156  0.50331917     0.33400
H4178       H  0.09201117  0.09294000  0.48742156     0.30100
H4179       H  0.19779903  0.04002780  0.49320945     0.38000
H4180       H  0.18442895  0.01981547  0.51275691     0.33500
C4181       C  0.08548058  0.99696250  0.66546403    -0.20300
C4182       C  0.05955429  0.99226902  0.66420592     0.36000
C4183       C  0.04787479  0.99003090  0.64069294    -0.26200
C4184       C  0.06134845  0.99309322  0.61837799     0.02400
C4185       C  0.08702774  0.99893546  0.61974931     0.27200
C4186       C  0.09886679  0.00014895  0.64314690    -0.25400
N4187       N  0.04539355  0.98865646  0.68665753    -0.82800
H4188       H  0.02810691  0.98587184  0.63973951     0.13000
C4189       C  0.04806165  0.99170303  0.59383786     0.02400
N4190       N  0.10088932  0.00423012  0.59741901    -0.81300
H4191       H  0.11866501  0.00423929  0.64399109     0.17800
C4192       C  0.02681704  0.00658147  0.58991114    -0.26200
C4193       C  0.01477334  0.00728192  0.56658421     0.35900
C4194       C  0.02451938  0.99333377  0.54647453    -0.20200
C4195       C  0.04529414  0.97790113  0.55049882    -0.25400
C4196       C  0.05668117  0.97647400  0.57411465     0.27200
H4197       H  0.01995782  0.01820273  0.60495257     0.13000
N4198       N  0.99342035  0.02315049  0.56285370    -0.82700
H4199       H  0.05280663  0.96700657  0.53524928     0.17800
N4200       N  0.07674970  0.95924149  0.57809720    -0.81300
H4201       H  0.98911093  0.03284554  0.57920681     0.33500
H4202       H  0.97813135  0.01174667  0.55901942     0.38000
H4203       H  0.07015156  0.94132768  0.57415470     0.33400
H4204       H  0.09090310  0.96331796  0.56532176     0.30100
H4205       H  0.09332872  0.02037913  0.58946654     0.33400
H4206       H  0.11952409  0.00820346  0.60161642     0.30100
H4207       H  0.04442149  0.00583085  0.69582593     0.38000
H4208       H  0.02699505  0.98373370  0.68242645     0.33500
C4209       C  0.00925054  0.04736628  0.47251217    -0.20300
C4210       C  0.99879462  0.06868919  0.48384974     0.36000
C4211       C  0.00269398  0.09236502  0.47325410    -0.26200
C4212       C  0.01457045  0.09533655  0.45003865     0.02400
C4213       C  0.02413758  0.07367831  0.43808650     0.27200
C4214       C  0.02196339  0.05007137  0.44979200    -0.25400
N4215       N  0.98275794  0.06604702  0.50519476    -0.82800
H4216       H  0.99561619  0.10862505  0.48292226     0.13000
C4217       C  0.01550418  0.12101555  0.43830850     0.02400
N4218       N  0.03538781  0.07553172  0.41385102    -0.81300
H4219       H  0.02954419  0.03361168  0.44083835     0.17800
C4220       C  0.03767839  0.13005799  0.42735727    -0.26200
C4221       C  0.03874817  0.15392411  0.41603829     0.35900
C4222       C  0.01760256  0.16971619  0.41665938    -0.20200
C4223       C  0.99580053  0.16108037  0.42822752    -0.25400
C4224       C  0.99421238  0.13683469  0.43823958     0.27200
H4225       H  0.05425899  0.11847153  0.42756973     0.13000
N4226       N  0.06118153  0.16213604  0.40388066    -0.82700
H4227       H  0.97931177  0.17283399  0.42810024     0.17800
N4228       N  0.97065341  0.12793727  0.44748679    -0.81300
H4229       H  0.07497464  0.14833721  0.40484937     0.33500
H4230       H  0.06796786  0.17749622  0.41375502     0.38000
H4231       H  0.95692023  0.14176033  0.44614554     0.33400
H4232       H  0.96497034  0.11326787  0.43597605     0.30100
H4233       H  0.04139299  0.05801863  0.40770226     0.33400
H4234       H  0.02153535  0.08139667  0.40139969     0.30100
H4235       H  0.99317088  0.05889420  0.51994447     0.38000
H4236       H  0.97601860  0.08343160  0.51098333     0.33500
C4237       C  0.99367991  0.83342478  0.58273214    -0.20300
C4238       C  0.99316492  0.83548533  0.55644665     0.36000
C4239       C  0.99214807  0.85937910  0.54528674    -0.26200
C4240       C  0.99202183  0.88128674  0.55975063     0.02400
C4241       C  0.99281265  0.87922473  0.58592006     0.27200
C4242       C  0.99332187  0.85547669  0.59705121    -0.25400
N4243       N  0.99299728  0.81347935  0.54116499    -0.82800
H4244       H  0.99153185  0.86097293  0.52516237     0.13000
C4245       C  0.99176691  0.90632117  0.54741509     0.02400
N4246       N  0.99356141  0.90131215  0.60111781    -0.81300
H4247       H  0.99403534  0.85425432  0.61720124     0.17800
C4248       C  0.97242365  0.92337442  0.55255479    -0.26200
C4249       C  0.97218566  0.94752013  0.54219301     0.35900
C4250       C  0.99158869  0.95470002  0.52573778    -0.20200
C4251       C  0.01065048  0.93743808  0.52036966    -0.25400
C4252       C  0.01121437  0.91361586  0.53131348     0.27200
H4253       H  0.95743825  0.91792691  0.56496528     0.13000
N4254       N  0.95205477  0.96397837  0.54882441    -0.82700
H4255       H  0.02542463  0.94278879  0.50766096     0.17800
N4256       N  0.03175552  0.89698827  0.52654472    -0.81300
H4257       H  0.95327604  0.96728919  0.56799394     0.33500
H4258       H  0.95378355  0.98125518  0.54012223     0.38000
H4259       H  0.04451356  0.90517397  0.51428744     0.33400
H4260       H  0.04123377  0.89432103  0.54338702     0.30100
H4261       H  0.99404379  0.89663952  0.62003799     0.33400
H4262       H  0.01029696  0.91055473  0.59726632     0.30100
H4263       H  0.01057080  0.80510461  0.54271282     0.38000
H4264       H  0.99090113  0.81825520  0.52238375     0.33500
C4265       C  0.92776046  0.06539392  0.28065997    -0.20300
C4266       C  0.92396364  0.07475703  0.30492357     0.36000
C4267       C  0.93590294  0.09659270  0.31226529    -0.26200
C4268       C  0.95051497  0.11013975  0.29542077     0.02400
C4269       C  0.95530390  0.10040051  0.27149423     0.27200
C4270       C  0.94430286  0.07767446  0.26453501    -0.25400
N4271       N  0.90710707  0.06283317  0.32184189    -0.82800
H4272       H  0.93271979  0.10368893  0.33092696     0.13000
C4273       C  0.95966490  0.13485719  0.30321490     0.02400
N4274       N  0.97014116  0.11423025  0.25399835    -0.81300
H4275       H  0.94686907  0.07075717  0.24573209     0.17800
C4276       C  0.98536009  0.13989665  0.30274285    -0.26200
C4277       C  0.99484244  0.16166529  0.31371880     0.35900
C4278       C  0.97820060  0.17822388  0.32554210    -0.20200
C4279       C  0.95254586  0.17353271  0.32527027    -0.25400
C4280       C  0.94296734  0.15248133  0.31343160     0.27200
H4281       H  0.99810982  0.12622388  0.29502425     0.13000
N4282       N  0.02129626  0.16618480  0.31433493    -0.82700
H4283       H  0.93996909  0.18588453  0.33505111     0.17800
N4284       N  0.91642363  0.14846824  0.31243841    -0.81300
H4285       H  0.03087661  0.15216843  0.30471028     0.33500
H4286       H  0.02711573  0.16506490  0.33291205     0.38000
H4287       H  0.90685184  0.16319890  0.32095760     0.33400
H4288       H  0.91115634  0.14860068  0.29366799     0.30100
H4289       H  0.97173738  0.10449902  0.23717895     0.33400
H4290       H  0.96060736  0.13078737  0.24999912     0.30100
H4291       H  0.91685588  0.05892707  0.33828619     0.38000
H4292       H  0.89290306  0.07549520  0.32622785     0.33500
C4293       C  0.82806532  0.02967965  0.17899829    -0.20300
C4294       C  0.83164564  0.05331110  0.16810283     0.36000
C4295       C  0.81756589  0.06003648  0.14727220    -0.26200
C4296       C  0.80017921  0.04347574  0.13706813     0.02400
C4297       C  0.79597814  0.02015851  0.14813516     0.27200
C4298       C  0.80994852  0.01346430  0.16919373    -0.25400
N4299       N  0.84958609  0.07045700  0.17800078    -0.82800
H4300       H  0.82048275  0.07812992  0.13873071     0.13000
C4301       C  0.78671426  0.05128988  0.11467486     0.02400
N4302       N  0.77792078  0.00334313  0.13768402    -0.81300
H4303       H  0.80736656  0.99516643  0.17735628     0.17800
C4304       C  0.79498906  0.04301293  0.09129084    -0.26200
C4305       C  0.78652135  0.05472443  0.06946623     0.35900
C4306       C  0.77017737  0.07513299  0.07163097    -0.20200
C4307       C  0.75994695  0.08147031  0.09476630    -0.25400
C4308       C  0.76817480  0.06973411  0.11648438     0.27200
H4309       H  0.80906021  0.02849851  0.09021654     0.13000
N4310       N  0.79549667  0.04705904  0.04544038    -0.82700
H4311       H  0.74624356  0.09627299  0.09592868     0.17800
N4312       N  0.75888702  0.07728473  0.14047192    -0.81300
H4313       H  0.80785406  0.03204999  0.04721473     0.33500
H4314       H  0.78017164  0.04058119  0.03524718     0.38000
H4315       H  0.74541725  0.09129411  0.13850551     0.33400
H4316       H  0.74981276  0.06194004  0.14833487     0.30100
H4317       H  0.77730548  0.98678721  0.14795977     0.33400
H4318       H  0.76035027  0.01169486  0.13944768     0.30100
H4319       H  0.84026679  0.08699648  0.18254577     0.38000
H4320       H  0.86248553  0.07452725  0.16396517     0.33500
C4321       C  0.81999271  0.97568955  0.31569078    -0.20300
C4322       C  0.81179101  0.99396460  0.33280238     0.36000
C4323       C  0.79988855  0.98640248  0.35491361    -0.26200
C4324       C  0.79567554  0.96107757  0.35971865     0.02400
C4325       C  0.80220389  0.94304967  0.34177133     0.27200
C4326       C  0.81447330  0.95059514  0.31999640    -0.25400
N4327       N  0.81719082  0.01986569  0.32851940    -0.82800
H4328       H  0.79474373  0.00011686  0.36883758     0.13000
C4329       C  0.78691841  0.95307084  0.38450764     0.02400
N4330       N  0.79717239  0.91708211  0.34620445    -0.81300
H4331       H  0.82068200  0.93678723  0.30683857     0.17800
C4332       C  0.76206776  0.94559271  0.38749971    -0.26200
C4333       C  0.75430440  0.93369174  0.40949421     0.35900
C4334       C  0.77191662  0.92898570  0.42851413    -0.20200
C4335       C  0.79641415  0.93759257  0.42596721    -0.25400
C4336       C  0.80414693  0.94969993  0.40411258     0.27200
H4337       H  0.74904792  0.94806419  0.37221924     0.13000
N4338       N  0.72912551  0.92473739  0.41186018    -0.82700
H4339       H  0.80970818  0.93405311  0.44065854     0.17800
N4340       N  0.82960977  0.95772507  0.40132798    -0.81300
H4341       H  0.71885631  0.92872516  0.39575677     0.33500
H4342       H  0.72067031  0.93461717  0.42638283     0.38000
H4343       H  0.83980006  0.95401490  0.41755071     0.33400
H4344       H  0.83774145  0.94705864  0.38716858     0.30100
H4345       H  0.80286926  0.90629888  0.33098825     0.33400
H4346       H  0.80802538  0.91138764  0.36138617     0.30100
H4347       H  0.80692784  0.02549995  0.31291379     0.38000
H4348       H  0.81086444  0.03073165  0.34342499     0.33500
C4349       C  0.92478316  0.92792347  0.22344664    -0.20300
C4350       C  0.95064917  0.93058778  0.21944104     0.36000
C4351       C  0.96442137  0.90995307  0.21082486    -0.26200
C4352       C  0.95273942  0.88692717  0.20647229     0.02400
C4353       C  0.92701915  0.88419148  0.21112275     0.27200
C4354       C  0.91338318  0.90467542  0.21968753    -0.25400
N4355       N  0.96254040  0.95432868  0.22294105    -0.82800
H4356       H  0.98417937  0.91189657  0.20695834     0.13000
C4357       C  0.96666687  0.86643432  0.19449852     0.02400
N4358       N  0.91470977  0.86082342  0.20638839    -0.81300
H4359       H  0.89354578  0.90256293  0.22311493     0.17800
C4360       C  0.96821602  0.84314061  0.20642885    -0.26200
C4361       C  0.97678271  0.82198467  0.19354121     0.35900
C4362       C  0.98358034  0.82443211  0.16834001    -0.20200
C4363       C  0.98361283  0.84801013  0.15701187    -0.25400
C4364       C  0.97519081  0.86909375  0.16981939     0.27200
H4365       H  0.96164888  0.84132298  0.22544314     0.13000
N4366       N  0.97706724  0.79794010  0.20536779    -0.82700
H4367       H  0.98939148  0.84979858  0.13772135     0.17800
N4368       N  0.97416041  0.89291755  0.15750438    -0.81300
H4369       H  0.97031729  0.79925872  0.22360864     0.33500
H4370       H  0.99569147  0.79225817  0.20678769     0.38000
H4371       H  0.98146938  0.89166139  0.13947640     0.33400
H4372       H  0.95536097  0.89786112  0.15556324     0.30100
H4373       H  0.89578143  0.86190452  0.21105499     0.33400
H4374       H  0.91549675  0.85747201  0.18720355     0.30100
H4375       H  0.96243908  0.95821869  0.24202703     0.38000
H4376       H  0.98130859  0.95338599  0.21765772     0.33500
C4377       C  0.83076948  0.91831832  0.25702398    -0.20300
C4378       C  0.81283324  0.91060289  0.23933348     0.36000
C4379       C  0.80228441  0.88658955  0.24131525    -0.26200
C4380       C  0.80839742  0.87046326  0.26115879     0.02400
C4381       C  0.82539838  0.87874437  0.27945296     0.27200
C4382       C  0.83697985  0.90205654  0.27667703    -0.25400
N4383       N  0.80640572  0.92646298  0.21869148    -0.82800
H4384       H  0.78953968  0.88022552  0.22698622     0.13000
C4385       C  0.79755761  0.84474747  0.26194193     0.02400
N4386       N  0.83082498  0.86349763  0.30083914    -0.81300
H4387       H  0.85086346  0.90773108  0.29023669     0.17800
C4388       C  0.81325989  0.82390991  0.26546622    -0.26200
C4389       C  0.80379565  0.79944585  0.26481832     0.35900
C4390       C  0.77846524  0.79546628  0.25905393    -0.20200
C4391       C  0.76271380  0.81627257  0.25610879    -0.25400
C4392       C  0.77175855  0.84074753  0.25834934     0.27200
H4393       H  0.83308338  0.82655969  0.26844127     0.13000
N4394       N  0.81994865  0.77881973  0.27009189    -0.82700
H4395       H  0.74316288  0.81335170  0.25185023     0.17800
N4396       N  0.75481690  0.86154850  0.25711841    -0.81300
H4397       H  0.83504686  0.77960360  0.25777695     0.33500
H4398       H  0.82696149  0.78113900  0.28813297     0.38000
H4399       H  0.73647519  0.85539264  0.25456298     0.33400
H4400       H  0.75528500  0.87049722  0.27443134     0.30100
H4401       H  0.84365730  0.87234002  0.31256130     0.33400
H4402       H  0.81429595  0.86166627  0.31103929     0.30100
H4403       H  0.79670847  0.94180182  0.22586303     0.38000
H4404       H  0.79401917  0.91739769  0.20666192     0.33500
C4405       C  0.83788373  0.08385031  0.23829385    -0.20300
C4406       C  0.85039071  0.10650261  0.24333932     0.36000
C4407       C  0.83741682  0.12925154  0.24190084    -0.26200
C4408       C  0.81213112  0.13015856  0.23501771     0.02400
C4409       C  0.80000512  0.10763963  0.22862242     0.27200
C4410       C  0.81274717  0.08471247  0.23089140    -0.25400
N4411       N  0.87612890  0.10649572  0.25070260    -0.82800
H4412       H  0.84710314  0.14632261  0.24670582     0.13000
C4413       C  0.79889256  0.15478632  0.23537077     0.02400
N4414       N  0.77500664  0.10800553  0.21913843    -0.81300
H4415       H  0.80312150  0.06756418  0.22626548     0.17800
C4416       C  0.80950535  0.17546547  0.22314044    -0.26200
C4417       C  0.79906110  0.19950225  0.22514967     0.35900
C4418       C  0.77740040  0.20303013  0.23983457    -0.20200
C4419       C  0.76650509  0.18234503  0.25152016    -0.25400
C4420       C  0.77710725  0.15847395  0.24968289     0.27200
H4421       H  0.82633620  0.17297910  0.21221294     0.13000
N4422       N  0.81122773  0.21974424  0.21250811    -0.82700
H4423       H  0.74989471  0.18488864  0.26278253     0.17800
N4424       N  0.76630091  0.13829619  0.26340554    -0.81300
H4425       H  0.81013806  0.21621167  0.19338507     0.33500
H4426       H  0.80201418  0.23664672  0.21554201     0.38000
H4427       H  0.76621360  0.14314574  0.28228141     0.33400
H4428       H  0.74774829  0.13634461  0.25763329     0.30100
H4429       H  0.77522022  0.10008227  0.20132631     0.33400
H4430       H  0.76403056  0.09665855  0.23056163     0.30100
H4431       H  0.88607621  0.11742780  0.23800742     0.38000
H4432       H  0.87748762  0.11489512  0.26824663     0.33500
C4433       C  0.91365303  0.00621466  0.33320174    -0.20300
C4434       C  0.90028485  0.00555101  0.35599818     0.36000
C4435       C  0.91323233  0.00778078  0.37871706    -0.26200
C4436       C  0.93924077  0.01074941  0.37939132     0.02400
C4437       C  0.95259297  0.01162564  0.35667098     0.27200
C4438       C  0.93971896  0.00899974  0.33386461    -0.25400
N4439       N  0.87364830  0.00209864  0.35610785    -0.82800
H4440       H  0.90300774  0.00661543  0.39610123     0.13000
C4441       C  0.95223717  0.01143603  0.40407293     0.02400
N4442       N  0.97914345  0.01549213  0.35685889    -0.81300
H4443       H  0.94999440  0.00980423  0.31649354     0.17800
C4444       C  0.97113195  0.99394441  0.40904311    -0.26200
C4445       C  0.98285463  0.99285296  0.43246902     0.35900
C4446       C  0.97510515  0.00908990  0.45165588    -0.20200
C4447       C  0.95670103  0.02705099  0.44666442    -0.25400
C4448       C  0.94524133  0.02846715  0.42300486     0.27200
H4449       H  0.97649627  0.98079394  0.39467016     0.13000
N4450       N  0.00252944  0.97514027  0.43699819    -0.82700
H4451       H  0.95110418  0.03975806  0.46133928     0.17800
N4452       N  0.92651629  0.04707249  0.41811825    -0.81300
H4453       H  0.00590762  0.96439175  0.42109224     0.33500
H4454       H  0.01887928  0.98517449  0.44051611     0.38000
H4455       H  0.92348189  0.05805554  0.43394020     0.33400
H4456       H  0.93349892  0.05894502  0.40433661     0.30100
H4457       H  0.98616359  0.01572686  0.33867771     0.33400
H4458       H  0.98242663  0.03318775  0.36434952     0.30100
H4459       H  0.87002579  0.98421153  0.34925209     0.38000
H4460       H  0.86665342  0.00256515  0.37429174     0.33500
C4461       C  0.17867170  0.31689103  0.98572075    -0.20300
C4462       C  0.15533477  0.31921199  0.99761047     0.36000
C4463       C  0.13449320  0.30712648  0.98744112    -0.26200
C4464       C  0.13666937  0.29342622  0.96536037     0.02400
C4465       C  0.16031111  0.28965024  0.95445582     0.27200
C4466       C  0.18129058  0.30120782  0.96504801    -0.25400
N4467       N  0.15259030  0.33543555  0.01876342    -0.82800
H4468       H  0.11618670  0.31002769  0.99555591     0.13000
C4469       C  0.11377397  0.28741510  0.95144368     0.02400
N4470       N  0.16252708  0.27560189  0.93174366    -0.81300
H4471       H  0.19931034  0.29945895  0.95614325     0.17800
C4472       C  0.10594844  0.30410877  0.93295072    -0.26200
C4473       C  0.08464130  0.29930356  0.91867598     0.35900
C4474       C  0.07095583  0.27725836  0.92277678    -0.20200
C4475       C  0.07819357  0.26111600  0.94222138    -0.25400
C4476       C  0.09962125  0.26598069  0.95658308     0.27200
H4477       H  0.11659524  0.32093256  0.92947967     0.13000
N4478       N  0.07694753  0.31691729  0.90010639    -0.82700
H4479       H  0.06774640  0.24416205  0.94556926     0.17800
N4480       N  0.10722860  0.24920723  0.97607271    -0.81300
H4481       H  0.07374379  0.33403097  0.90890011     0.33500
H4482       H  0.09165066  0.31922235  0.88750738     0.38000
H4483       H  0.09467784  0.23437124  0.97754641     0.33400
H4484       H  0.12442113  0.24149555  0.97093273     0.30100
H4485       H  0.18110336  0.27514744  0.92575812     0.33400
H4486       H  0.15749769  0.25719572  0.93569806     0.30100
H4487       H  0.16334684  0.32803734  0.03327263     0.38000
H4488       H  0.13408698  0.33558838  0.02495211     0.33500
C4489       C  0.07889237  0.07286303  0.77770210    -0.20300
C4490       C  0.08562894  0.08694483  0.79901863     0.36000
C4491       C  0.07169423  0.10803921  0.80520149    -0.26200
C4492       C  0.05109141  0.11518291  0.79094039     0.02400
C4493       C  0.04364213  0.10097837  0.77028817     0.27200
C4494       C  0.05770135  0.07983950  0.76375884    -0.25400
N4495       N  0.10663868  0.07999898  0.81426629    -0.82800
H4496       H  0.07682370  0.11903550  0.82137579     0.13000
C4497       C  0.03712589  0.13708553  0.79929415     0.02400
N4498       N  0.02215680  0.10829610  0.75596178    -0.81300
H4499       H  0.05244647  0.06919954  0.74741989     0.17800
C4500       C  0.04292861  0.16056708  0.78933369    -0.26200
C4501       C  0.03484385  0.18242150  0.80134689     0.35900
C4502       C  0.02098215  0.18024622  0.82347300    -0.20200
C4503       C  0.01408933  0.15675967  0.83245129    -0.25400
C4504       C  0.02204196  0.13506614  0.82057051     0.27200
H4505       H  0.05501060  0.16178232  0.77318470     0.13000
N4506       N  0.04209632  0.20653899  0.79229459    -0.82700
H4507       H  0.00341164  0.15537844  0.84946677     0.17800
N4508       N  0.01639297  0.11097641  0.83090093    -0.81300
H4509       H  0.05300046  0.20478069  0.77623129     0.33500
H4510       H  0.02584993  0.21603624  0.78706882     0.38000
H4511       H  0.00568494  0.11280841  0.84707451     0.33400
H4512       H  0.00536086  0.10146416  0.81793965     0.30100
H4513       H  0.01932999  0.09592805  0.74116812     0.33400
H4514       H  0.00651781  0.10681654  0.76752421     0.30100
H4515       H  0.10230333  0.06305193  0.82284652     0.38000
H4516       H  0.10941898  0.09289832  0.82860963     0.33500
C4517       C  0.97533895  0.32049134  0.82051272    -0.20300
C4518       C  0.98940207  0.34262259  0.82015374     0.36000
C4519       C  0.97982252  0.36349305  0.80785552    -0.26200
C4520       C  0.95678513  0.36225617  0.79571572     0.02400
C4521       C  0.94381320  0.33947005  0.79401992     0.27200
C4522       C  0.95341539  0.31852426  0.80647028    -0.25400
N4523       N  0.01276431  0.34406943  0.83327211    -0.82800
H4524       H  0.98968988  0.38110641  0.80872734     0.13000
C4525       C  0.94514510  0.38570290  0.78796253     0.02400
N4526       N  0.92059691  0.33802990  0.78061167    -0.81300
H4527       H  0.94320563  0.30112634  0.80631393     0.17800
C4528       C  0.94599059  0.39285146  0.76293811    -0.26200
C4529       C  0.93456734  0.41505928  0.75516693     0.35900
C4530       C  0.92239366  0.43016394  0.77300523    -0.20200
C4531       C  0.92220677  0.42324055  0.79814653    -0.25400
C4532       C  0.93356430  0.40106273  0.80585244     0.27200
H4533       H  0.95512001  0.38083960  0.74947867     0.13000
N4534       N  0.93433967  0.42175344  0.72919994    -0.82700
H4535       H  0.91255493  0.43482221  0.81163029     0.17800
N4536       N  0.93317155  0.39383348  0.83167036    -0.81300
H4537       H  0.94441884  0.40875530  0.71869884     0.33500
H4538       H  0.91586237  0.42077820  0.72297172     0.38000
H4539       H  0.92418795  0.40739978  0.84243940     0.33400
H4540       H  0.92247942  0.37759815  0.83310083     0.30100
H4541       H  0.91357599  0.31985000  0.78113432     0.33400
H4542       H  0.90760420  0.34926860  0.78987425     0.30100
H4543       H  0.02520106  0.33178068  0.82459335     0.38000
H4544       H  0.02046281  0.36189794  0.83162990     0.33500
C4545       C  0.93169833  0.22717148  0.92621998    -0.20300
C4546       C  0.91380184  0.24391396  0.93582754     0.36000
C4547       C  0.89233588  0.23437223  0.94740161    -0.26200
C4548       C  0.88887621  0.20856083  0.94966408     0.02400
C4549       C  0.90782320  0.19201054  0.94183635     0.27200
C4550       C  0.92881102  0.20151396  0.92970489    -0.25400
N4551       N  0.91646537  0.27029421  0.93187199    -0.82800
H4552       H  0.87766667  0.24696622  0.95337507     0.13000
C4553       C  0.86438972  0.19873206  0.95746103     0.02400
N4554       N  0.90508232  0.16555002  0.94529127    -0.81300
H4555       H  0.94234963  0.18877752  0.92189494     0.17800
C4556       C  0.85190027  0.18267339  0.94111174    -0.26200
C4557       C  0.83042564  0.17010940  0.94856976     0.35900
C4558       C  0.82055055  0.17435442  0.97255966    -0.20200
C4559       C  0.83179868  0.19213318  0.98816691    -0.25400
C4560       C  0.85398647  0.20412472  0.98097224     0.27200
H4561       H  0.85951827  0.17902438  0.92274300     0.13000
N4562       N  0.81919555  0.15248117  0.93194104    -0.82700
H4563       H  0.82432997  0.19532360  0.00666115     0.17800
N4564       N  0.86654211  0.22079457  0.99777974    -0.81300
H4565       H  0.81487137  0.16172772  0.91532034     0.33500
H4566       H  0.83242517  0.13871568  0.92785976     0.38000
H4567       H  0.85644675  0.22265898  0.01435293     0.33400
H4568       H  0.88365437  0.21264710  0.00251853     0.30100
H4569       H  0.92059002  0.15600057  0.93823510     0.33400
H4570       H  0.90474075  0.16214862  0.96447831     0.30100
H4571       H  0.93197982  0.27619701  0.94210866     0.38000
H4572       H  0.90107022  0.27990688  0.93907772     0.33500
C4573       C  0.08030979  0.24165239  0.82765271    -0.20300
C4574       C  0.08190410  0.25349843  0.80406653     0.36000
C4575       C  0.10484293  0.25441093  0.79135103    -0.26200
C4576       C  0.12639472  0.24372051  0.80156892     0.02400
C4577       C  0.12486539  0.23104995  0.82452545     0.27200
C4578       C  0.10191425  0.23019012  0.83736436    -0.25400
N4579       N  0.06050204  0.26525229  0.79312370    -0.82800
H4580       H  0.10596075  0.26406569  0.77363806     0.13000
C4581       C  0.15079028  0.24701702  0.78882470     0.02400
N4582       N  0.14680766  0.21959187  0.83493288    -0.81300
H4583       H  0.10107021  0.22094100  0.85529402     0.17800
C4584       C  0.16595667  0.26716593  0.79531002    -0.26200
C4585       C  0.18972018  0.27016808  0.78448967     0.35900
C4586       C  0.20032336  0.25041557  0.77018411    -0.20200
C4587       C  0.18273033  0.23387274  0.75947493    -0.25400
C4588       C  0.15844954  0.23131040  0.76932251     0.27200
H4589       H  0.15877808  0.28115734  0.80801983     0.13000
N4590       N  0.20129765  0.29423089  0.78540068    -0.82700
H4591       H  0.18815309  0.22171951  0.74441761     0.17800
N4592       N  0.14166439  0.21276960  0.75975653    -0.81300
H4593       H  0.19063591  0.30680099  0.79585587     0.33500
H4594       H  0.20197251  0.30116181  0.76719937     0.38000
H4595       H  0.14982017  0.20333662  0.74479039     0.33400
H4596       H  0.13875902  0.19960599  0.77383025     0.30100
H4597       H  0.14268601  0.21123577  0.85204984     0.33400
H4598       H  0.15220306  0.20522090  0.82291566     0.30100
H4599       H  0.06463822  0.28410024  0.79035593     0.38000
H4600       H  0.05738387  0.25714478  0.77567611     0.33500
C4601       C  0.01012867  0.33454034  0.91294327    -0.20300
C4602       C  0.01615913  0.33631493  0.93849616     0.36000
C4603       C  0.01599946  0.35989147  0.95013239    -0.26200
C4604       C  0.00932747  0.38154009  0.93688618     0.02400
C4605       C  0.00297120  0.37964473  0.91145432     0.27200
C4606       C  0.00381771  0.35627428  0.89971280    -0.25400
N4607       N  0.02307080  0.31440669  0.95233974    -0.82800
H4608       H  0.02093719  0.36141846  0.96966317     0.13000
C4609       C  0.00844449  0.40605509  0.94985194     0.02400
N4610       N  0.99512897  0.40139243  0.89780371    -0.81300
H4611       H  0.99857906  0.35489441  0.88027302     0.17800
C4612       C  0.02269328  0.42606928  0.94068569    -0.26200
C4613       C  0.02123462  0.44989981  0.95160926     0.35900
C4614       C  0.00552766  0.45356964  0.97230028    -0.20200
C4615       C  0.99162886  0.43352869  0.98171821    -0.25400
C4616       C  0.99266377  0.40987919  0.97054812     0.27200
H4617       H  0.03478710  0.42309513  0.92477606     0.13000
N4618       N  0.03508724  0.47042747  0.94144239    -0.82700
H4619       H  0.97956505  0.43655955  0.99765659     0.17800
N4620       N  0.97733297  0.38991538  0.97975150    -0.81300
H4621       H  0.04519071  0.46470674  0.92577290     0.33500
H4622       H  0.04823967  0.47586633  0.95471940     0.38000
H4623       H  0.96685189  0.39582798  0.99509760     0.33400
H4624       H  0.96453598  0.38536812  0.96574421     0.30100
H4625       H  0.99112717  0.39683383  0.87927245     0.33400
H4626       H  0.97842233  0.40769105  0.90570299     0.30100
H4627       H  0.00712237  0.30337132  0.95421394     0.38000
H4628       H  0.02849385  0.31920763  0.97043860     0.33500
C4629       C  0.91557899  0.26242411  0.83350916    -0.20300
C4630       C  0.90013105  0.28367599  0.83565111     0.36000
C4631       C  0.87614204  0.28373432  0.82486878    -0.26200
C4632       C  0.86651088  0.26235727  0.81316695     0.02400
C4633       C  0.88174952  0.24079354  0.81165589     0.27200
C4634       C  0.90627226  0.24128956  0.82123331    -0.25400
N4635       N  0.90881796  0.30534345  0.84862113    -0.82800
H4636       H  0.86512763  0.30067282  0.82551933     0.13000
C4637       C  0.84117868  0.26289409  0.80124685     0.02400
N4638       N  0.87206414  0.21829586  0.80075766    -0.81300
H4639       H  0.91775764  0.22466050  0.82018640     0.17800
C4640       C  0.83923369  0.25644904  0.77598514    -0.26200
C4641       C  0.81604508  0.25403340  0.76409452     0.35900
C4642       C  0.79378732  0.25993696  0.77724771    -0.20200
C4643       C  0.79572734  0.26723279  0.80237123    -0.25400
C4644       C  0.81893423  0.26803744  0.81463818     0.27200
H4645       H  0.85602093  0.25216435  0.76553399     0.13000
N4646       N  0.81602828  0.24396008  0.73925954    -0.82700
H4647       H  0.77893206  0.27137518  0.81283710     0.17800
N4648       N  0.81909531  0.27263912  0.84093891    -0.81300
H4649       H  0.82575693  0.25633434  0.72782865     0.33500
H4650       H  0.79809996  0.24198677  0.73197068     0.38000
H4651       H  0.82892692  0.28903009  0.84451502     0.33400
H4652       H  0.82815504  0.25777885  0.84977531     0.30100
H4653       H  0.88550328  0.20413019  0.80111602     0.33400
H4654       H  0.85724637  0.21225987  0.81190760     0.30100
H4655       H  0.89650801  0.30890692  0.86331698     0.38000
H4656       H  0.90798139  0.32050820  0.83639903     0.33500
C4657       C  0.95296817  0.02655722  0.00881785    -0.20300
C4658       C  0.93146724  0.01187051  0.00494065     0.36000
C4659       C  0.90763220  0.02253988  0.00701020    -0.26200
C4660       C  0.90453900  0.04805076  0.01193081     0.02400
C4661       C  0.92604827  0.06289562  0.01592959     0.27200
C4662       C  0.95000949  0.05185117  0.01492265    -0.25400
N4663       N  0.93380695  0.98628716  0.99758282    -0.82800
H4664       H  0.89139126  0.01087797  0.00407159     0.13000
C4665       C  0.87873857  0.05892159  0.01206832     0.02400
N4666       N  0.92353971  0.08925640  0.02010149    -0.81300
H4667       H  0.96645842  0.06319557  0.01788652     0.17800
C4668       C  0.87060026  0.07290487  0.03266239    -0.26200
C4669       C  0.84684182  0.08426275  0.03298370     0.35900
C4670       C  0.83046165  0.08103813  0.01252871    -0.20200
C4671       C  0.83812749  0.06610878  0.99245183    -0.25400
C4672       C  0.86221812  0.05547340  0.99174472     0.27200
H4673       H  0.88299718  0.07522782  0.04845875     0.13000
N4674       N  0.83945576  0.09937585  0.05386516    -0.82700
H4675       H  0.82583461  0.06399108  0.97654192     0.17800
N4676       N  0.87030081  0.04199431  0.97002156    -0.81300
H4677       H  0.82430213  0.09065333  0.06243719     0.33500
H4678       H  0.85369957  0.10009698  0.06717800     0.38000
H4679       H  0.85601495  0.04114796  0.95676035     0.33400
H4680       H  0.88485813  0.05210895  0.96190485     0.30100
H4681       H  0.94106997  0.09746404  0.02253113     0.33400
H4682       H  0.91591299  0.09707855  0.00393631     0.30100
H4683       H  0.92533143  0.98423318  0.98014225     0.38000
H4684       H  0.92386310  0.97540561  0.01031839     0.33500
C4685       C  0.08278090  0.00988397  0.83034443    -0.20300
C4686       C  0.06029759  0.02343184  0.83299261     0.36000
C4687       C  0.04909711  0.02544233  0.85679706    -0.26200
C4688       C  0.05952788  0.01351286  0.87773990     0.02400
C4689       C  0.08113983  0.99872903  0.87466545     0.27200
C4690       C  0.09288918  0.99772838  0.85124314    -0.25400
N4691       N  0.04932821  0.03562491  0.81180215    -0.82800
H4692       H  0.03204081  0.03611681  0.85902257     0.13000
C4693       C  0.04655950  0.01461209  0.90231852     0.02400
N4694       N  0.09024179  0.98359314  0.89490049    -0.81300
H4695       H  0.10982270  0.98682413  0.84909567     0.17800
C4696       C  0.02532958  0.99984232  0.90593138    -0.26200
C4697       C  0.01380949  0.99814565  0.92943493     0.35900
C4698       C  0.02406255  0.01103443  0.95000490    -0.20200
C4699       C  0.04481672  0.02653984  0.94625905    -0.25400
C4700       C  0.05585096  0.02891217  0.92244870     0.27200
H4701       H  0.01808883  0.98908966  0.89043366     0.13000
N4702       N  0.99252849  0.98220491  0.93283215    -0.82700
H4703       H  0.05244912  0.03672314  0.96192880     0.17800
N4704       N  0.07576203  0.04643060  0.91847513    -0.81300
H4705       H  0.98789837  0.97326150  0.91614719     0.33500
H4706       H  0.97732580  0.99348883  0.93738416     0.38000
H4707       H  0.07984915  0.05595180  0.93497910     0.33400
H4708       H  0.09189536  0.03662491  0.91364100     0.30100
H4709       H  0.10553093  0.97288354  0.88918008     0.33400
H4710       H  0.09677740  0.99530003  0.90898889     0.30100
H4711       H  0.04358640  0.02179366  0.79932917     0.38000
H4712       H  0.03326812  0.04542094  0.81703561     0.33500
C4713       C  0.01075450  0.83059966  0.07465031    -0.20300
C4714       C  0.03186103  0.84631079  0.07616308     0.36000
C4715       C  0.03151893  0.86992906  0.06481208    -0.26200
C4716       C  0.00975358  0.87943067  0.05362850     0.02400
C4717       C  0.98814474  0.86414109  0.05312339     0.27200
C4718       C  0.98919138  0.83964239  0.06279168    -0.25400
N4719       N  0.05364369  0.83853267  0.08963760    -0.82800
H4720       H  0.04835303  0.88108422  0.06521204     0.13000
C4721       C  0.00981825  0.90526624  0.04264901     0.02400
N4722       N  0.96491632  0.87386987  0.04376555    -0.81300
H4723       H  0.97255347  0.82817462  0.06258028     0.17800
C4724       C  0.99946512  0.90913133  0.01888906    -0.26200
C4725       C  0.99782347  0.93296708  0.00826728     0.35900
C4726       C  0.00823833  0.95369634  0.02099263    -0.20200
C4727       C  0.01939470  0.94990410  0.04434609    -0.25400
C4728       C  0.01979514  0.92608733  0.05557562     0.27200
H4729       H  0.99201701  0.89346329  0.00854852     0.13000
N4730       N  0.98426701  0.93540838  0.98520913    -0.82700
H4731       H  0.02697182  0.96580753  0.05423308     0.17800
N4732       N  0.02960152  0.92318836  0.08035402    -0.81300
H4733       H  0.99377955  0.92525335  0.97156943     0.33500
H4734       H  0.98324051  0.95381100  0.97903111     0.38000
H4735       H  0.03619899  0.94021020  0.08718248     0.33400
H4736       H  0.01481749  0.91789509  0.09191125     0.30100
H4737       H  0.95082729  0.86045016  0.04494057     0.33400
H4738       H  0.95955623  0.88858890  0.05539598     0.30100
H4739       H  0.06899033  0.83946166  0.07766660     0.38000
H4740       H  0.05665037  0.85130647  0.10404844     0.33500
C4741       C  0.04629343  0.97614463  0.98787694    -0.20300
C4742       C  0.05343938  0.95860636  0.96965172     0.36000
C4743       C  0.07777534  0.94855887  0.96993122    -0.26200
C4744       C  0.09506383  0.95505742  0.98860247     0.02400
C4745       C  0.08791340  0.97267228  0.00683718     0.27200
C4746       C  0.06381469  0.98320636  0.00605091    -0.25400
N4747       N  0.03597329  0.95028182  0.95131101    -0.82800
H4748       H  0.08300412  0.93508555  0.95580337     0.13000
C4749       C  0.11990022  0.94217514  0.98983379     0.02400
N4750       N  0.10485547  0.97922237  0.02656729    -0.81300
H4751       H  0.05831594  0.99653183  0.02022665     0.17800
C4752       C  0.14212071  0.95615915  0.99054082    -0.26200
C4753       C  0.16572413  0.94451516  0.99292720     0.35900
C4754       C  0.16722089  0.91818719  0.99398123    -0.20200
C4755       C  0.14493748  0.90431997  0.99299301    -0.25400
C4756       C  0.12143532  0.91593616  0.99124736     0.27200
H4757       H  0.14100493  0.97630182  0.98937273     0.13000
N4758       N  0.18804533  0.95933706  0.99359414    -0.82700
H4759       H  0.14578706  0.88415454  0.99405402     0.17800
N4760       N  0.09905684  0.90114065  0.99137298    -0.81300
H4761       H  0.18374934  0.97819332  0.99102020     0.33500
H4762       H  0.19552552  0.95789474  0.01154004     0.38000
H4763       H  0.10337429  0.88214259  0.99240057     0.33400
H4764       H  0.08915953  0.90550660  0.00759888     0.30100
H4765       H  0.09677027  0.99243849  0.03841754     0.33400
H4766       H  0.10790715  0.96321999  0.03729776     0.30100
H4767       H  0.04358249  0.95393012  0.93374902     0.38000
H4768       H  0.03430129  0.93093513  0.95301435     0.33500
C4769       C  0.97651689  0.99261378  0.04529690    -0.20300
C4770       C  0.98302416  0.01021059  0.06403792     0.36000
C4771       C  0.97287333  0.00791874  0.08807405    -0.26200
C4772       C  0.95674060  0.98833584  0.09428305     0.02400
C4773       C  0.95100471  0.97025707  0.07599669     0.27200
C4774       C  0.96094190  0.97256831  0.05174361    -0.25400
N4775       N  0.99977884  0.03068817  0.05951045    -0.82800
H4776       H  0.97731779  0.02188969  0.10197969     0.13000
C4777       C  0.94432630  0.98830033  0.11925509     0.02400
N4778       N  0.93495071  0.94971591  0.08213066    -0.81300
H4779       H  0.95641550  0.95874016  0.03775496     0.17800
C4780       C  0.91846151  0.99182789  0.12030145    -0.26200
C4781       C  0.90582717  0.99333839  0.14315927     0.35900
C4782       C  0.91909472  0.99106345  0.16595200    -0.20200
C4783       C  0.94516238  0.98779619  0.16495187    -0.25400
C4784       C  0.95787221  0.98617457  0.14181558     0.27200
H4785       H  0.90797125  0.99397369  0.10313830     0.13000
N4786       N  0.87947004  0.99805842  0.14302291    -0.82700
H4787       H  0.95557209  0.98619202  0.18218237     0.17800
N4788       N  0.98440353  0.98219434  0.14110547    -0.81300
H4789       H  0.87076804  0.98379873  0.13298023     0.33500
H4790       H  0.87625250  0.01487692  0.13367179     0.38000
H4791       H  0.99160180  0.98090184  0.15918324     0.33400
H4792       H  0.98755911  0.96490948  0.13262986     0.30100
H4793       H  0.93247884  0.93811826  0.06665682     0.33400
H4794       H  0.94404358  0.93903243  0.09569750     0.30100
H4795       H  0.00715024  0.03036266  0.04154005     0.38000
H4796       H  0.01503598  0.02856035  0.07149709     0.33500
C4797       C  0.98915871  0.17034581  0.91667690    -0.20300
C4798       C  0.99331956  0.16852193  0.94269578     0.36000
C4799       C  0.99142702  0.14502879  0.95459552    -0.26200
C4800       C  0.98669549  0.12303632  0.94099620     0.02400
C4801       C  0.98251788  0.12498452  0.91507652     0.27200
C4802       C  0.98296712  0.14849075  0.90353710    -0.25400
N4803       N  0.99915290  0.19037364  0.95706277    -0.82800
H4804       H  0.99411469  0.14381831  0.97457007     0.13000
C4805       C  0.98699657  0.09797240  0.95357272     0.02400
N4806       N  0.97855037  0.10295378  0.90030499    -0.81300
H4807       H  0.97914307  0.14949605  0.88378901     0.17800
C4808       C  0.96775776  0.08069690  0.94887862    -0.26200
C4809       C  0.96901384  0.05593229  0.95749395     0.35900
C4810       C  0.98964649  0.04827744  0.97225210    -0.20200
C4811       C  0.00811180  0.06594055  0.97807950    -0.25400
C4812       C  0.00721113  0.09037196  0.96865756     0.27200
H4813       H  0.95179071  0.08631246  0.93779003     0.13000
N4814       N  0.94935549  0.03920232  0.95033634    -0.82700
H4815       H  0.02368992  0.06056186  0.98983577     0.17800
N4816       N  0.02736660  0.10710948  0.97382948    -0.81300
H4817       H  0.93278875  0.04574886  0.95832344     0.33500
H4818       H  0.95233551  0.02132525  0.95730029     0.38000
H4819       H  0.02885705  0.10899758  0.99317166     0.33400
H4820       H  0.04387821  0.09898867  0.96728909     0.30100
H4821       H  0.97535270  0.10755925  0.88164255     0.33400
H4822       H  0.99502869  0.09246481  0.90078551     0.30100
H4823       H  0.01715419  0.19599095  0.95208331     0.38000
H4824       H  0.99997700  0.18604624  0.97604882     0.33500
loop_ 
_geom_bond_atom_site_label_1 
_geom_bond_atom_site_label_2 
_geom_bond_distance 
_geom_bond_site_symmetry_2 
_ccdc_geom_bond_type 
C1            C2   1.420   1_565  A
C1            C6   1.417   1_556  A
C1         C4741   1.498       .  S
C2            C3   1.424   1_455  A
C2         C4698   1.497       .  S
C3            C4   1.424   1_556  A
C3         C4810   1.500       .  S
C4            C5   1.418   1_545  A
C4         C4657   1.498       .  S
C5            C6   1.415   1_655  A
C5         C4769   1.501       .  S
C6         C4726   1.494       .  S
O7           C15   1.275       .  A
O7          Co27   2.015       .  S
O8           C16   1.277       .  A
O8          Co28   2.032       .  S
O9           C17   1.264       .  A
O9          Co29   1.980       .  S
O10          C18   1.256       .  A
O10         Co30   1.963       .  S
O11          C17   1.265       .  A
O11         Co28   2.018       .  S
O12          C18   1.269       .  A
O12         Co27   2.039       .  S
O13          C16   1.259       .  A
O13         Co30   1.949   1_655  S
O14          C15   1.263   1_655  A
O14         Co29   1.960       .  S
C15        C4502   1.456       .  S
C16        C4517   1.456       .  S
C17        C4629   1.487       .  S
C18        C4573   1.497       .  S
O19          C32   1.263       .  A
O19         Co27   1.953       .  S
O20          C33   1.264       .  A
O20         Co28   1.955       .  S
O21          C34   1.268       .  A
O21         Co29   2.023       .  S
O22          C35   1.265       .  A
O22         Co30   2.020       .  S
O23          C35   1.258   1_655  A
O23         Co28   1.972       .  S
O24          C34   1.262   1_455  A
O24         Co27   1.984       .  S
O25          C32   1.278       .  A
O25         Co30   2.035       .  S
O26          C33   1.275       .  A
O26         Co29   2.018       .  S
Co27         O31   2.105   1_455  S
Co28         O31   2.100       .  S
Co29         O31   2.098       .  S
Co30         O31   2.096   1_455  S
C32        C4474   1.479       .  S
C33        C4545   1.461       .  S
C34        C4797   1.501       .  S
C35        C4601   1.481       .  S
O36          C44   1.277       .  A
O36         Co56   2.023       .  S
O37          C45   1.280       .  A
O37         Co57   2.039       .  S
O38          C46   1.264       .  A
O38         Co58   1.984       .  S
O39          C47   1.263       .  A
O39         Co59   1.985       .  S
O40          C46   1.264       .  A
O40         Co57   2.007       .  S
O41          C47   1.266       .  A
O41         Co56   2.021       .  S
O42          C45   1.265       .  A
O42         Co59   1.954   1_565  S
O43          C44   1.266       .  A
O43         Co58   1.950   1_545  S
C44        C4293   1.466       .  S
C45        C4321   1.471       .  S
C46        C4377   1.490       .  S
C47        C4405   1.488       .  S
O48          C61   1.270       .  A
O48         Co56   1.965       .  S
O49          C62   1.267       .  A
O49         Co57   1.966       .  S
O50          C63   1.266       .  A
O50         Co58   2.014       .  S
O51          C64   1.266       .  A
O51         Co59   2.022       .  S
O52          C64   1.262   1_565  A
O52         Co57   1.979       .  S
O53          C63   1.267   1_545  A
O53         Co56   1.997       .  S
O54          C61   1.275       .  A
O54         Co59   2.012       .  S
O55          C62   1.276       .  A
O55         Co58   2.014       .  S
Co56         O60   2.109   1_545  S
Co57         O60   2.097       .  S
Co58         O60   2.094       .  S
Co59         O60   2.098   1_545  S
C61        C4265   1.468       .  S
C62        C4349   1.470       .  S
C63        C4782   1.500       .  S
C64        C4433   1.490       .  S
C65          C66   1.416       .  A
C65          C70   1.416   1_545  A
C65        C4166   1.490       .  S
C66          C67   1.415   1_455  A
C66        C4209   1.500       .  S
C67          C68   1.423   1_545  A
C67        C4446   1.493       .  S
C68          C69   1.423       .  A
C68        C4125   1.498       .  S
C69          C70   1.418   1_655  A
C69        C4250   1.499       .  S
C70        C4194   1.495       .  S
O71          C79   1.277       .  A
O71         Co91   2.023       .  S
O72          C80   1.277       .  A
O72         Co92   2.027       .  S
O73          C81   1.263       .  A
O73         Co93   1.988       .  S
O74          C82   1.263       .  A
O74         Co94   1.985       .  S
O75          C81   1.267       .  A
O75         Co92   2.027       .  S
O76          C82   1.266       .  A
O76         Co91   2.019       .  S
O77          C80   1.265       .  A
O77         Co94   1.955   1_655  S
O78          C79   1.268       .  A
O78         Co93   1.964   1_455  S
C79        C3942   1.473       .  S
C80        C3957   1.475       .  S
C81        C4097   1.490       .  S
C82        C4041   1.488       .  S
O83          C96   1.268       .  A
O83         Co91   1.963       .  S
O84          C97   1.263       .  A
O84         Co92   1.952       .  S
O85          C98   1.266       .  A
O85         Co93   2.015       .  S
O86          C99   1.268       .  A
O86         Co94   2.026       .  S
O87          C99   1.263   1_655  A
O87         Co92   1.988       .  S
O88          C98   1.265   1_455  A
O88         Co91   1.991       .  S
O89          C96   1.276       .  A
O89         Co94   2.017       .  S
O90          C97   1.278       .  A
O90         Co93   2.030       .  S
Co91         O95   2.104   1_455  S
Co92         O95   2.102       .  S
Co93         O95   2.101       .  S
Co94         O95   2.097   1_455  S
C96        C3985   1.471       .  S
C97        C4013   1.466       .  S
C98        C4237   1.498       .  S
C99        C4069   1.498       .  S
O100        C108   1.276       .  A
O100       Co120   2.026       .  S
O101        C109   1.276       .  A
O101       Co121   2.030       .  S
O102        C110   1.266       .  A
O102       Co122   1.983       .  S
O103        C111   1.261       .  A
O103       Co123   1.972       .  S
O104        C110   1.269       .  A
O104       Co121   2.028       .  S
O105        C111   1.267       .  A
O105       Co120   2.026       .  S
O106        C109   1.259       .  A
O106       Co123   1.949   1_556  S
O107        C108   1.262       .  A
O107       Co122   1.951   1_554  S
C108       C3733   1.475       .  S
C109       C3761   1.456       .  S
C110       C3845   1.497       .  S
C111       C3873   1.486       .  S
O112        C125   1.264       .  A
O112       Co120   1.960       .  S
O113        C126   1.269       .  A
O113       Co121   1.972       .  S
O114        C127   1.269       .  A
O114       Co122   2.027       .  S
O115        C128   1.266       .  A
O115       Co123   2.023       .  S
O116        C128   1.265   1_556  A
O116       Co121   1.992       .  S
O117        C127   1.262   1_554  A
O117       Co120   1.980       .  S
O118        C125   1.275       .  A
O118       Co123   2.014       .  S
O119        C126   1.271       .  A
O119       Co122   2.001       .  S
Co120       O124   2.108       .  S
Co121       O124   2.112   1_556  S
Co122       O124   2.096   1_556  S
Co123       O124   2.097       .  S
C125       C3789   1.482       .  S
C126       C3830   1.469       .  S
C127       C4754   1.496       .  S
C128       C3901   1.489       .  S
O129        C137   1.264   1_455  A
O129       Co149   1.961       .  S
O130        C138   1.267       .  A
O130       Co150   1.960   1_455  S
O131        C139   1.266       .  A
O131       Co151   2.010       .  S
O132        C140   1.271       .  A
O132       Co152   2.047       .  S
O133        C139   1.268       .  A
O133       Co150   1.998       .  S
O134        C140   1.259       .  A
O134       Co149   1.972       .  S
O135        C138   1.275       .  A
O135       Co152   2.017       .  S
O136        C137   1.274       .  A
O136       Co151   2.015       .  S
C137       C4362   1.464       .  S
C138       C3634   1.467       .  S
C139       C3677   1.507       .  S
C140       C3705   1.497       .  S
O141        C154   1.278       .  A
O141       Co149   2.034       .  S
O142        C155   1.272       .  A
O142       Co150   2.001       .  S
O143        C156   1.268   1_655  A
O143       Co151   1.986       .  S
O144        C157   1.262       .  A
O144       Co152   1.990   1_655  S
O145        C157   1.268       .  A
O145       Co150   2.035       .  S
O146        C156   1.265       .  A
O146       Co149   2.012       .  S
O147        C154   1.259       .  A
O147       Co152   1.950       .  S
O148        C155   1.270       .  A
O148       Co151   1.968       .  S
Co149       O153   2.094       .  S
Co150       O153   2.107   1_655  S
Co151       O153   2.110   1_655  S
Co152       O153   2.105       .  S
C154       C3746   1.460       .  S
C155       C3593   1.478       .  S
C156       C4713   1.490       .  S
C157       C3649   1.493       .  S
C158        C159   1.423       .  A
C158        C163   1.418       .  A
C158       C3509   1.500       .  S
C159        C160   1.422       .  A
C159       C3886   1.493       .  S
C160        C161   1.422       .  A
C160       C3718   1.501       .  S
C161        C162   1.424       .  A
C161       C3537   1.509       .  S
C162        C163   1.422       .  A
C162       C3565   1.495       .  S
C163       C3494   1.503       .  S
O164        C172   1.263       .  A
O164       Co184   1.953       .  S
O165        C173   1.266       .  A
O165       Co185   1.963       .  S
O166        C174   1.270       .  A
O166       Co186   2.036       .  S
O167        C175   1.266       .  A
O167       Co187   2.013       .  S
O168        C174   1.260       .  A
O168       Co185   1.979       .  S
O169        C175   1.264       .  A
O169       Co184   1.984       .  S
O170        C173   1.274       .  A
O170       Co187   2.013       .  S
O171        C172   1.275       .  A
O171       Co186   2.022       .  S
C172       C3998   1.463       .  S
C173       C3369   1.468       .  S
C174       C3453   1.496       .  S
C175       C3578   1.500       .  S
O176        C189   1.273       .  A
O176       Co184   2.011       .  S
O177        C190   1.278       .  A
O177       Co185   2.038       .  S
O178        C191   1.261       .  A
O178       Co186   1.984       .  S
O179        C192   1.267       .  A
O179       Co187   1.986       .  S
O180        C192   1.266       .  A
O180       Co185   2.012       .  S
O181        C191   1.269       .  A
O181       Co184   2.032       .  S
O182        C189   1.269       .  A
O182       Co187   1.967       .  S
O183        C190   1.261       .  A
O183       Co186   1.957       .  S
Co184       O188   2.108       .  S
Co185       O188   2.103       .  S
Co186       O188   2.101       .  S
Co187       O188   2.105       .  S
C189       C3326   1.473       .  S
C190       C3354   1.466       .  S
C191       C3438   1.490       .  S
C192       C3410   1.489       .  S
C193        C194   1.418       .  A
C193        C198   1.424       .  A
C193       C3229   1.504       .  S
C194        C195   1.417       .  A
C194       C4054   1.493       .  S
C195        C196   1.423       .  A
C195       C3466   1.504       .  S
C196        C197   1.431       .  A
C196       C3257   1.505       .  S
C197        C198   1.432       .  A
C197       C3298   1.504       .  S
C198       C3858   1.507       .  S
O199        C207   1.279       .  A
O199       Co219   2.029       .  S
O200        C208   1.279       .  A
O200       Co220   2.036       .  S
O201        C209   1.264       .  A
O201       Co221   1.986       .  S
O202        C210   1.262       .  A
O202       Co222   1.988       .  S
O203        C209   1.265       .  A
O203       Co220   2.019       .  S
O204        C210   1.264       .  A
O204       Co219   2.019       .  S
O205        C208   1.258       .  A
O205       Co222   1.948       .  S
O206        C207   1.263       .  A
O206       Co221   1.948       .  S
C207       C3774   1.469       .  S
C208       C3089   1.457       .  S
C209       C3145   1.495       .  S
C210       C3201   1.492       .  S
O211        C224   1.271       .  A
O211       Co219   1.972       .  S
O212        C225   1.268       .  A
O212       Co220   1.968       .  S
O213        C226   1.268       .  A
O213       Co221   2.020       .  S
O214        C227   1.269       .  A
O214       Co222   2.037       .  S
O215        C227   1.260       .  A
O215       Co220   1.982       .  S
O216        C226   1.263       .  A
O216       Co219   1.986       .  S
O217        C224   1.276       .  A
O217       Co222   2.021       .  S
O218        C225   1.276       .  A
O218       Co221   2.018       .  S
Co219       O223   2.107       .  S
Co220       O223   2.103       .  S
Co221       O223   2.100       .  S
Co222       O223   2.100       .  S
C224       C3074   1.481       .  S
C225       C3130   1.476       .  S
C226       C3285   1.501       .  S
C227       C3173   1.490       .  S
C228        C229   1.432       .  A
C228        C233   1.432       .  A
C228       C3005   1.504       .  S
C229        C230   1.423       .  A
C229       C3033   1.509       .  S
C230        C231   1.418       .  A
C230       C4642   1.504       .  S
C231        C232   1.418       .  A
C231       C2962   1.497       .  S
C232        C233   1.425       .  A
C232       C2934   1.502       .  S
C233       C2977   1.511       .  S
O234        C242   1.277       .  A
O234       Co254   2.020       .  S
O235        C243   1.280       .  A
O235       Co255   2.040       .  S
O236        C244   1.261       .  A
O236       Co256   1.981       .  S
O237        C245   1.261       .  A
O237       Co257   1.983       .  S
O238        C244   1.262       .  A
O238       Co255   2.010       .  S
O239        C245   1.265       .  A
O239       Co254   2.023       .  S
O240        C243   1.263       .  A
O240       Co257   1.956       .  S
O241        C242   1.264       .  A
O241       Co256   1.947       .  S
C242       C4530   1.458       .  S
C243       C3970   1.465       .  S
C244       C2837   1.487       .  S
C245       C2865   1.494       .  S
O246        C259   1.267       .  A
O246       Co254   1.954       .  S
O247        C260   1.264       .  A
O247       Co255   1.950       .  S
O248        C261   1.265       .  A
O248       Co256   2.022       .  S
O249        C262   1.264       .  A
O249       Co257   2.028       .  S
O250        C262   1.258       .  A
O250       Co255   1.978       .  S
O251        C261   1.265       .  A
O251       Co254   1.993       .  S
O252        C259   1.279       .  A
O252       Co257   2.026       .  S
O253        C260   1.277       .  A
O253       Co256   2.020       .  S
Co254       O258   2.109       .  S
Co255       O258   2.099       .  S
Co256       O258   2.099       .  S
Co257       O258   2.101       .  S
C259       C2809   1.467       .  S
C260       C2781   1.458       .  S
C261       C3046   1.506       .  S
C262       C2906   1.482       .  S
O263        C271   1.263   1_455  A
O263       Co283   1.955       .  S
O264        C272   1.263   1_655  A
O264       Co284   1.963       .  S
O265        C273   1.270       .  A
O265       Co285   2.035       .  S
O266        C274   1.269       .  A
O266       Co286   2.033       .  S
O267        C273   1.260       .  A
O267       Co284   1.976       .  S
O268        C274   1.262       .  A
O268       Co283   1.974       .  S
O269        C272   1.273       .  A
O269       Co286   2.014       .  S
O270        C271   1.271       .  A
O270       Co285   2.009       .  S
C271       C4278   1.458       .  S
C272       C2669   1.463       .  S
C273       C2738   1.493       .  S
C274       C2766   1.486       .  S
O275        C288   1.271       .  A
O275       Co283   2.005       .  S
O276        C289   1.276       .  A
O276       Co284   2.031       .  S
O277        C290   1.263       .  A
O277       Co285   1.975   1_455  S
O278        C291   1.264   1_455  A
O278       Co286   1.977       .  S
O279        C291   1.268       .  A
O279       Co284   2.027       .  S
O280        C290   1.269       .  A
O280       Co283   2.035       .  S
O281        C288   1.263       .  A
O281       Co286   1.962       .  S
O282        C289   1.260       .  A
O282       Co285   1.952       .  S
Co283       O287   2.110       .  S
Co284       O287   2.105   1_655  S
Co285       O287   2.103   1_655  S
Co286       O287   2.107       .  S
C288       C2654   1.457       .  S
C289       C2613   1.458       .  S
C290       C4222   1.493       .  S
C291       C2697   1.493       .  S
C292        C293   1.418       .  A
C292        C297   1.420       .  A
C292       C2557   1.497       .  S
C293        C294   1.417       .  A
C293       C2514   1.499       .  S
C294        C295   1.420       .  A
C294       C2753   1.495       .  S
C295        C296   1.423       .  A
C295       C2486   1.497       .  S
C296        C297   1.421       .  A
C296       C2598   1.509       .  S
C297       C2529   1.492       .  S
O298        C306   1.263   1_554  A
O298       Co318   1.966       .  S
O299        C307   1.264       .  A
O299       Co319   1.963   1_554  S
O300        C308   1.270       .  A
O300       Co320   2.032       .  S
O301        C309   1.271       .  A
O301       Co321   2.042       .  S
O302        C308   1.259       .  A
O302       Co319   1.967       .  S
O303        C309   1.261       .  A
O303       Co318   1.976       .  S
O304        C307   1.272       .  A
O304       Co321   2.012       .  S
O305        C306   1.272       .  A
O305       Co320   2.018       .  S
C306       C4461   1.462       .  S
C307       C2361   1.471       .  S
C308       C2445   1.490       .  S
C309       C2585   1.501       .  S
O310        C323   1.276       .  A
O310       Co318   2.031       .  S
O311        C324   1.275       .  A
O311       Co319   2.028       .  S
O312        C325   1.265   1_556  A
O312       Co320   1.980       .  S
O313        C326   1.263       .  A
O313       Co321   1.975   1_556  S
O314        C326   1.266       .  A
O314       Co319   2.024       .  S
O315        C325   1.268       .  A
O315       Co318   2.026       .  S
O316        C323   1.259       .  A
O316       Co321   1.949       .  S
O317        C324   1.263       .  A
O317       Co320   1.962       .  S
Co318       O322   2.105       .  S
Co319       O322   2.108   1_556  S
Co320       O322   2.107   1_556  S
Co321       O322   2.111       .  S
C323       C2333   1.463       .  S
C324       C2305   1.476       .  S
C325       C2402   1.497       .  S
C326       C2430   1.487       .  S
C327        C328   1.428       .  A
C327        C332   1.423       .  A
C327       C2458   1.524       .  S
C328        C329   1.440       .  A
C328       C4586   1.543       .  S
C329        C330   1.436       .  A
C329       C2234   1.545       .  S
C330        C331   1.428       .  A
C330       C2193   1.523       .  S
C331        C332   1.420       .  A
C331       C2277   1.494       .  S
C332       C2262   1.492       .  S
O333        C341   1.269       .  A
O333       Co353   2.000       .  S
O334        C342   1.273       .  A
O334       Co354   2.025       .  S
O335        C343   1.265       .  A
O335       Co355   1.975       .  S
O336        C344   1.263       .  A
O336       Co356   1.970       .  S
O337        C343   1.271       .  A
O337       Co354   2.029       .  S
O338        C344   1.273       .  A
O338       Co353   2.043       .  S
O339        C342   1.259       .  A
O339       Co356   1.961       .  S
O340        C341   1.263       .  A
O340       Co355   1.961       .  S
C341       C2025   1.467       .  S
C342       C2081   1.463       .  S
C343       C2178   1.494       .  S
C344       C2137   1.495       .  S
O345        C358   1.263       .  A
O345       Co353   1.962       .  S
O346        C359   1.265       .  A
O346       Co354   1.972       .  S
O347        C360   1.272       .  A
O347       Co355   2.028       .  S
O348        C361   1.272       .  A
O348       Co356   2.034       .  S
O349        C361   1.263       .  A
O349       Co354   1.980       .  S
O350        C360   1.268       .  A
O350       Co353   1.990       .  S
O351        C358   1.270       .  A
O351       Co356   2.007       .  S
O352        C359   1.269       .  A
O352       Co355   2.007       .  S
Co353       O357   2.112       .  S
Co354       O357   2.104       .  S
Co355       O357   2.100       .  S
Co356       O357   2.102       .  S
C358       C2109   1.472       .  S
C359       C2066   1.469       .  S
C360       C2990   1.509       .  S
C361       C2290   1.488       .  S
O362        C370   1.260   1_545  A
O362       Co382   1.954       .  S
O363        C371   1.267       .  A
O363       Co383   1.962   1_545  S
O364        C372   1.267       .  A
O364       Co384   2.026       .  S
O365        C373   1.268       .  A
O365       Co385   2.031       .  S
O366        C372   1.266       .  A
O366       Co383   1.983       .  S
O367        C373   1.263       .  A
O367       Co382   1.983       .  S
O368        C371   1.273       .  A
O368       Co385   2.008       .  S
O369        C370   1.276       .  A
O369       Co384   2.025       .  S
C370       C3802   1.458       .  S
C371       C1954   1.467       .  S
C372       C3522   1.492       .  S
C373       C2570   1.492       .  S
O374        C387   1.273       .  A
O374       Co382   2.009       .  S
O375        C388   1.274       .  A
O375       Co383   2.012       .  S
O376        C389   1.263   1_565  A
O376       Co384   1.985       .  S
O377        C390   1.266       .  A
O377       Co385   1.981   1_565  S
O378        C390   1.267       .  A
O378       Co383   2.016       .  S
O379        C389   1.269       .  A
O379       Co382   2.036       .  S
O380        C387   1.267       .  A
O380       Co385   1.967       .  S
O381        C388   1.266       .  A
O381       Co384   1.972       .  S
Co382       O386   2.099   1_545  S
Co383       O386   2.108       .  S
Co384       O386   2.106       .  S
Co385       O386   2.109   1_545  S
C387       C1926   1.479       .  S
C388       C1885   1.467       .  S
C389       C1982   1.488       .  S
C390       C1997   1.489       .  S
C391        C392   1.420       .  A
C391        C396   1.422       .  A
C391       C2165   1.504       .  S
C392        C393   1.418   1_545  A
C392       C1842   1.493       .  S
C393        C394   1.417       .  A
C393       C1773   1.495       .  S
C394        C395   1.421       .  A
C394       C1857   1.498       .  S
C395        C396   1.419   1_565  A
C395       C2010   1.500       .  S
C396       C1814   1.495       .  S
O397        C405   1.265       .  A
O397       Co417   1.950       .  S
O398        C406   1.269       .  A
O398       Co418   1.960       .  S
O399        C407   1.264       .  A
O399       Co419   2.016       .  S
O400        C408   1.264       .  A
O400       Co420   2.012       .  S
O401        C407   1.265       .  A
O401       Co418   1.994       .  S
O402        C408   1.262       .  A
O402       Co417   1.985       .  S
O403        C406   1.280       .  A
O403       Co420   2.028       .  S
O404        C405   1.280       .  A
O404       Co419   2.030       .  S
C405       C3382   1.468       .  S
C406       C1689   1.473       .  S
C407       C1717   1.495       .  S
C408       C1870   1.492       .  S
O409        C422   1.278       .  A
O409       Co417   2.024       .  S
O410        C423   1.279       .  A
O410       Co418   2.025       .  S
O411        C424   1.263       .  A
O411       Co419   1.991       .  S
O412        C425   1.263       .  A
O412       Co420   1.990       .  S
O413        C425   1.265       .  A
O413       Co418   2.024       .  S
O414        C424   1.266       .  A
O414       Co417   2.030       .  S
O415        C422   1.269       .  A
O415       Co420   1.960       .  S
O416        C423   1.267       .  A
O416       Co419   1.954       .  S
Co417       O421   2.098       .  S
Co418       O421   2.102       .  S
Co419       O421   2.096       .  S
Co420       O421   2.095       .  S
C422       C1898   1.477       .  S
C423       C1661   1.468       .  S
C424       C3481   1.498       .  S
C425       C1745   1.489       .  S
O426        C434   1.267       .  A
O426       Co446   1.964       .  S
O427        C435   1.268       .  A
O427       Co447   1.968       .  S
O428        C436   1.265       .  A
O428       Co448   2.011       .  S
O429        C437   1.267       .  A
O429       Co449   2.029       .  S
O430        C436   1.268   1_545  A
O430       Co447   1.995       .  S
O431        C437   1.262       .  A
O431       Co446   1.984   1_545  S
O432        C435   1.275       .  A
O432       Co449   2.014       .  S
O433        C434   1.277       .  A
O433       Co448   2.030       .  S
C434       C3061   1.470       .  S
C435       C2053   1.475       .  S
C436       C1633   1.505       .  S
C437       C1829   1.492       .  S
O438        C451   1.278       .  A
O438       Co446   2.033       .  S
O439        C452   1.276       .  A
O439       Co447   2.011       .  S
O440        C453   1.262       .  A
O440       Co448   1.974       .  S
O441        C454   1.261       .  A
O441       Co449   1.973       .  S
O442        C454   1.266       .  A
O442       Co447   2.028       .  S
O443        C453   1.266       .  A
O443       Co446   2.020       .  S
O444        C451   1.261   1_545  A
O444       Co449   1.951       .  S
O445        C452   1.266   1_565  A
O445       Co448   1.966       .  S
Co446       O450   2.104   1_565  S
Co447       O450   2.109       .  S
Co448       O450   2.096   1_565  S
Co449       O450   2.102       .  S
C451       C1577   1.463       .  S
C452       C1549   1.463       .  S
C453       C1605   1.490       .  S
C454       C2921   1.486       .  S
C455        C456   1.425       .  A
C455        C460   1.426   1_565  A
C455       C1646   1.506       .  S
C456        C457   1.416   1_556  A
C456       C3214   1.493       .  S
C457        C458   1.411   1_565  A
C457       C3914   1.495       .  S
C458        C459   1.420       .  A
C458       C1969   1.498       .  S
C459        C460   1.429   1_554  A
C459       C1521   1.495       .  S
C460       C1493   1.505       .  S
O461        C469   1.271       .  A
O461       Co481   1.969       .  S
O462        C470   1.264       .  A
O462       Co482   1.954       .  S
O463        C471   1.266       .  A
O463       Co483   2.028       .  S
O464        C472   1.263       .  A
O464       Co484   2.006       .  S
O465        C471   1.260       .  A
O465       Co482   1.975       .  S
O466        C472   1.265       .  A
O466       Co481   1.989       .  S
O467        C470   1.280       .  A
O467       Co484   2.037       .  S
O468        C469   1.277       .  A
O468       Co483   2.008       .  S
C469       C2374   1.476       .  S
C470       C1422   1.468       .  S
C471       C1437   1.492       .  S
C472       C1534   1.497       .  S
O473        C486   1.281       .  A
O473       Co481   2.026       .  S
O474        C487   1.279       .  A
O474       Co482   2.026       .  S
O475        C488   1.266       .  A
O475       Co483   1.992       .  S
O476        C489   1.258       .  A
O476       Co484   1.971       .  S
O477        C489   1.264       .  A
O477       Co482   2.019       .  S
O478        C488   1.263       .  A
O478       Co481   2.007       .  S
O479        C486   1.265       .  A
O479       Co484   1.960       .  S
O480        C487   1.266       .  A
O480       Co483   1.953       .  S
Co481       O485   2.097       .  S
Co482       O485   2.094       .  S
Co483       O485   2.101       .  S
Co484       O485   2.093       .  S
C486       C1913   1.472       .  S
C487       C1381   1.465       .  S
C488       C2542   1.496       .  S
C489       C1465   1.480       .  S
O490        C498   1.274       .  A
O490       Co510   2.015       .  S
O491        C499   1.276       .  A
O491       Co511   2.022       .  S
O492        C500   1.261       .  A
O492       Co512   1.981       .  S
O493        C501   1.261       .  A
O493       Co513   1.980       .  S
O494        C500   1.269       .  A
O494       Co511   2.034       .  S
O495        C501   1.268       .  A
O495       Co510   2.026       .  S
O496        C499   1.267       .  A
O496       Co513   1.959       .  S
O497        C498   1.270       .  A
O497       Co512   1.963       .  S
C498       C2641   1.475       .  S
C499       C2094   1.473       .  S
C500       C2206   1.493       .  S
C501       C2501   1.495       .  S
O502        C515   1.262       .  A
O502       Co510   1.943       .  S
O503        C516   1.259       .  A
O503       Co511   1.941       .  S
O504        C517   1.265       .  A
O504       Co512   2.004       .  S
O505        C518   1.265       .  A
O505       Co513   2.019       .  S
O506        C518   1.261       .  A
O506       Co511   1.984       .  S
O507        C517   1.262       .  A
O507       Co510   1.984       .  S
O508        C515   1.278       .  A
O508       Co513   2.030       .  S
O509        C516   1.280       .  A
O509       Co512   2.035       .  S
Co510       O514   2.100       .  S
Co511       O514   2.095       .  S
Co512       O514   2.095       .  S
Co513       O514   2.097       .  S
C515       C1941   1.459       .  S
C516       C1366   1.464       .  S
C517       C4153   1.488       .  S
C518       C1801   1.492       .  S
C519        C520   1.428       .  A
C519        C524   1.419       .  A
C519       C4390   1.498       .  S
C520        C521   1.426       .  A
C520       C3690   1.505       .  S
C521        C522   1.427       .  A
C521       C1297   1.505       .  S
C522        C523   1.420       .  A
C522       C1325   1.495       .  S
C523        C524   1.413       .  A
C523       C1758   1.498       .  S
C524       C1269   1.500       .  S
O525        C533   1.276       .  A
O525       Co545   2.023       .  S
O526        C534   1.276       .  A
O526       Co546   2.020       .  S
O527        C535   1.261       .  A
O527       Co547   1.987       .  S
O528        C536   1.260       .  A
O528       Co548   1.974       .  S
O529        C535   1.265       .  A
O529       Co546   2.028       .  S
O530        C536   1.266       .  A
O530       Co545   2.026       .  S
O531        C534   1.263       .  A
O531       Co548   1.950       .  S
O532        C533   1.266       .  A
O532       Co547   1.960       .  S
C533       C1674   1.462       .  S
C534       C1394   1.461       .  S
C535       C1185   1.491       .  S
C536       C1226   1.491       .  S
O537        C550   1.263       .  A
O537       Co545   1.955       .  S
O538        C551   1.264       .  A
O538       Co546   1.952       .  S
O539        C552   1.264       .  A
O539       Co547   2.020       .  S
O540        C553   1.265       .  A
O540       Co548   2.022       .  S
O541        C553   1.262       .  A
O541       Co546   1.981       .  S
O542        C552   1.262       .  A
O542       Co545   1.976       .  S
O543        C550   1.276       .  A
O543       Co548   2.027       .  S
O544        C551   1.279       .  A
O544       Co547   2.033       .  S
Co545       O549   2.106       .  S
Co546       O549   2.110       .  S
Co547       O549   2.106       .  S
Co548       O549   2.106       .  S
C550       C1142   1.459       .  S
C551       C1157   1.465       .  S
C552       C1338   1.490       .  S
C553       C1254   1.494       .  S
C554        C555   1.417       .  A
C554        C559   1.420       .  A
C554       C1478   1.484       .  S
C555        C556   1.412       .  A
C555       C1086   1.492       .  S
C556        C557   1.413       .  A
C556       C4418   1.493       .  S
C557        C558   1.419       .  A
C557       C2725   1.494       .  S
C558        C559   1.422       .  A
C558       C1101   1.491       .  S
C559       C1241   1.510       .  S
C560        C561   1.416       .  A
C560        C565   1.415       .  A
C560       C4110   1.499       .  S
C561        C562   1.421       .  A
C561       C2893   1.491       .  S
C562        C563   1.422       .  A
C562       C1045   1.505       .  S
C563        C564   1.423       .  A
C563       C3186   1.494       .  S
C564        C565   1.421       .  A
C564       C1618   1.499       .  S
C565       C1017   1.494       .  S
O566        C574   1.260       .  A
O566       Co586   1.943   1_565  S
O567        C575   1.264       .  A
O567       Co587   1.955   1_545  S
O568        C576   1.268       .  A
O568       Co588   2.028       .  S
O569        C577   1.268       .  A
O569       Co589   2.025       .  S
O570        C576   1.264       .  A
O570       Co587   1.988       .  S
O571        C577   1.260       .  A
O571       Co586   1.971       .  S
O572        C575   1.277       .  A
O572       Co589   2.020       .  S
O573        C574   1.277       .  A
O573       Co588   2.029       .  S
C574       C3817   1.462       .  S
C575       C1353   1.465       .  S
C576       C3242   1.501       .  S
C577       C2221   1.497       .  S
O578        C591   1.273       .  A
O578       Co586   2.013       .  S
O579        C592   1.276       .  A
O579       Co587   2.021       .  S
O580        C593   1.263   1_565  A
O580       Co588   1.992       .  S
O581        C594   1.262   1_545  A
O581       Co589   1.982       .  S
O582        C594   1.268       .  A
O582       Co587   2.026       .  S
O583        C593   1.266       .  A
O583       Co586   2.022       .  S
O584        C591   1.266       .  A
O584       Co589   1.959       .  S
O585        C592   1.266       .  A
O585       Co588   1.961       .  S
Co586       O590   2.093       .  S
Co587       O590   2.099   1_565  S
Co588       O590   2.104   1_565  S
Co589       O590   2.101       .  S
C591       C4489   1.476       .  S
C592       C3929   1.471       .  S
C593       C4685   1.487       .  S
C594       C4181   1.491       .  S
O595        C603   1.266       .  A
O595       Co615   1.962       .  S
O596        C604   1.268       .  A
O596       Co616   1.966       .  S
O597        C605   1.269       .  A
O597       Co617   2.023       .  S
O598        C606   1.267       .  A
O598       Co618   2.017       .  S
O599        C605   1.264       .  A
O599       Co616   1.980       .  S
O600        C606   1.266       .  A
O600       Co615   1.986       .  S
O601        C604   1.274       .  A
O601       Co618   2.014       .  S
O602        C603   1.273       .  A
O602       Co617   2.008       .  S
C603       C2794   1.468       .  S
C604       C1129   1.479       .  S
C605        C989   1.496       .  S
C606        C961   1.497       .  S
O607        C620   1.275       .  A
O607       Co615   2.011       .  S
O608        C621   1.275       .  A
O608       Co616   2.019       .  S
O609        C622   1.265       .  A
O609       Co617   1.980       .  S
O610        C623   1.262       .  A
O610       Co618   1.980       .  S
O611        C623   1.267       .  A
O611       Co616   2.012       .  S
O612        C622   1.269       .  A
O612       Co615   2.027       .  S
O613        C620   1.264       .  A
O613       Co618   1.957       .  S
O614        C621   1.265       .  A
O614       Co617   1.956       .  S
Co615       O619   2.102       .  S
Co616       O619   2.099       .  S
Co617       O619   2.097       .  S
Co618       O619   2.094       .  S
C620       C2038   1.473       .  S
C621       C2626   1.464       .  S
C622       C3018   1.493       .  S
C623       C1114   1.483       .  S
C624        C625   1.421       .  A
C624        C629   1.419       .  A
C624       C1002   1.503       .  S
C625        C626   1.423   1_655  A
C625       C2850   1.496       .  S
C626        C627   1.422       .  A
C626       C4082   1.506       .  S
C627        C628   1.426       .  A
C627       C3425   1.498       .  S
C628        C629   1.425   1_455  A
C628        C946   1.500       .  S
C629       C2710   1.502       .  S
O630        C638   1.275       .  A
O630       Co650   2.009       .  S
O631        C639   1.276       .  A
O631       Co651   2.024       .  S
O632        C640   1.265       .  A
O632       Co652   1.991       .  S
O633        C641   1.262       .  A
O633       Co653   1.975       .  S
O634        C640   1.267       .  A
O634       Co651   2.020       .  S
O635        C641   1.269       .  A
O635       Co650   2.031       .  S
O636        C639   1.262       .  A
O636       Co653   1.948   1_556  S
O637        C638   1.266       .  A
O637       Co652   1.963   1_554  S
C638       C3606   1.472       .  S
C639       C3102   1.467       .  S
C640       C1058   1.490       .  S
C641       C1310   1.488       .  S
O642        C655   1.265       .  A
O642       Co650   1.960       .  S
O643        C656   1.268       .  A
O643       Co651   1.964       .  S
O644        C657   1.268       .  A
O644       Co652   2.016       .  S
O645        C658   1.268       .  A
O645       Co653   2.023       .  S
O646        C658   1.263   1_556  A
O646       Co651   1.984       .  S
O647        C657   1.263   1_554  A
O647       Co650   1.983       .  S
O648        C655   1.275       .  A
O648       Co653   2.017       .  S
O649        C656   1.275       .  A
O649       Co652   2.017       .  S
Co650       O654   2.102   1_554  S
Co651       O654   2.103       .  S
Co652       O654   2.099       .  S
Co653       O654   2.095   1_554  S
C655       C1170   1.473       .  S
C656       C2822   1.470       .  S
C657        C877   1.486       .  S
C658        C918   1.497       .  S
C659        C660   1.420       .  A
C659        C664   1.420       .  A
C659        C849   1.492       .  S
C660        C661   1.421   1_556  A
C660       C3158   1.503       .  S
C661        C662   1.421       .  A
C661        C905   1.497       .  S
C662        C663   1.421       .  A
C662       C1198   1.499       .  S
C663        C664   1.419   1_554  A
C663       C1450   1.494       .  S
C664       C2417   1.502       .  S
O665        C673   1.268       .  A
O665       Co685   1.964   1_556  S
O666        C674   1.266       .  A
O666       Co686   1.964   1_554  S
O667        C675   1.266       .  A
O667       Co687   2.008       .  S
O668        C676   1.268       .  A
O668       Co688   2.026       .  S
O669        C675   1.268       .  A
O669       Co686   1.991       .  S
O670        C676   1.262       .  A
O670       Co685   1.983       .  S
O671        C674   1.275       .  A
O671       Co688   2.015       .  S
O672        C673   1.274       .  A
O672       Co687   2.013       .  S
C673       C4558   1.472       .  S
C674       C1409   1.474       .  S
C675       C2949   1.492       .  S
C676       C1073   1.487       .  S
O677        C690   1.277       .  A
O677       Co685   2.030       .  S
O678        C691   1.272       .  A
O678       Co686   2.000       .  S
O679        C692   1.266   1_556  A
O679       Co687   1.982       .  S
O680        C693   1.260   1_554  A
O680       Co688   1.968       .  S
O681        C693   1.271       .  A
O681       Co686   2.040       .  S
O682        C692   1.266       .  A
O682       Co685   2.015       .  S
O683        C690   1.259       .  A
O683       Co688   1.950       .  S
O684        C691   1.270       .  A
O684       Co687   1.968       .  S
Co685       O689   2.101       .  S
Co686       O689   2.106   1_556  S
Co687       O689   2.100   1_556  S
Co688       O689   2.091       .  S
C690       C4306   1.455       .  S
C691       C1562   1.476       .  S
C692       C4670   1.488       .  S
C693       C1506   1.496       .  S
O694        C702   1.276       .  A
O694       Co714   2.021       .  S
O695        C703   1.274       .  A
O695       Co715   2.004       .  S
O696        C704   1.259       .  A
O696       Co716   1.967       .  S
O697        C705   1.262       .  A
O697       Co717   1.973       .  S
O698        C704   1.267       .  A
O698       Co715   2.027       .  S
O699        C705   1.269       .  A
O699       Co714   2.030       .  S
O700        C703   1.270       .  A
O700       Co717   1.980       .  S
O701        C702   1.264       .  A
O701       Co716   1.956       .  S
C702       C3341   1.475       .  S
C703       C2318   1.485       .  S
C704       C2249   1.480       .  S
C705       C3270   1.495       .  S
O706        C719   1.265       .  A
O706       Co714   1.959       .  S
O707        C720   1.262       .  A
O707       Co715   1.954       .  S
O708        C721   1.265       .  A
O708       Co716   2.017       .  S
O709        C722   1.266       .  A
O709       Co717   2.011       .  S
O710        C722   1.264       .  A
O710       Co715   1.982       .  S
O711        C721   1.266       .  A
O711       Co714   1.993       .  S
O712        C719   1.278       .  A
O712       Co717   2.030       .  S
O713        C720   1.276       .  A
O713       Co716   2.025       .  S
Co714       O718   2.109       .  S
Co715       O718   2.098       .  S
Co716       O718   2.100       .  S
Co717       O718   2.101       .  S
C719       C3117   1.472       .  S
C720       C2122   1.463       .  S
C721        C821   1.501       .  S
C722        C862   1.490       .  S
O723        C731   1.280       .  A
O723       Co743   2.038       .  S
O724        C732   1.278       .  A
O724       Co744   2.030       .  S
O725        C733   1.260       .  A
O725       Co745   1.986       .  S
O726        C734   1.260       .  A
O726       Co746   1.975       .  S
O727        C733   1.264       .  A
O727       Co744   2.020       .  S
O728        C734   1.264       .  A
O728       Co743   2.016       .  S
O729        C732   1.265       .  A
O729       Co746   1.954       .  S
O730        C731   1.265       .  A
O730       Co745   1.955       .  S
C731       C4334   1.469       .  S
C732       C1590   1.469       .  S
C733       C1786   1.486       .  S
C734       C4138   1.488       .  S
O735        C748   1.267       .  A
O735       Co743   1.959       .  S
O736        C749   1.262       .  A
O736       Co744   1.947       .  S
O737        C750   1.266       .  A
O737       Co745   2.025       .  S
O738        C751   1.264       .  A
O738       Co746   2.022       .  S
O739        C751   1.260       .  A
O739       Co744   1.977       .  S
O740        C750   1.262       .  A
O740       Co743   1.988       .  S
O741        C748   1.278       .  A
O741       Co746   2.024       .  S
O742        C749   1.278       .  A
O742       Co745   2.029       .  S
Co743       O747   2.106       .  S
Co744       O747   2.104       .  S
Co745       O747   2.099       .  S
Co746       O747   2.100       .  S
C748       C4026   1.472       .  S
C749       C1702   1.461       .  S
C750       C1282   1.497       .  S
C751       C1030   1.490       .  S
O752        C760   1.262       .  A
O752       Co772   1.954       .  S
O753        C761   1.265       .  A
O753       Co773   1.962       .  S
O754        C762   1.267       .  A
O754       Co774   2.026       .  S
O755        C763   1.269       .  A
O755       Co775   2.022       .  S
O756        C762   1.259       .  A
O756       Co773   1.973       .  S
O757        C763   1.263       .  A
O757       Co772   1.986       .  S
O758        C761   1.275       .  A
O758       Co775   2.015       .  S
O759        C760   1.275       .  A
O759       Co774   2.022       .  S
C760       C3621   1.464       .  S
C761       C2682   1.479       .  S
C762        C806   1.486       .  S
C763        C933   1.503       .  S
O764        C777   1.274       .  A
O764       Co772   2.015       .  S
O765        C778   1.277       .  A
O765       Co773   2.034       .  S
O766        C779   1.259       .  A
O766       Co774   1.967       .  S
O767        C780   1.265       .  A
O767       Co775   1.980       .  S
O768        C780   1.264       .  A
O768       Co773   2.013       .  S
O769        C779   1.270       .  A
O769       Co772   2.040       .  S
O770        C777   1.265       .  A
O770       Co775   1.965       .  S
O771        C778   1.259       .  A
O771       Co774   1.950       .  S
Co772       O776   2.110       .  S
Co773       O776   2.102       .  S
Co774       O776   2.101       .  S
Co775       O776   2.098       .  S
C777       C3313   1.462       .  S
C778       C2346   1.462       .  S
C779       C3550   1.497       .  S
C780       C2473   1.490       .  S
C781        C782   1.419       .  A
C781        C786   1.420       .  A
C781       C1213   1.502       .  S
C782        C783   1.422       .  A
C782       C1730   1.497       .  S
C783        C784   1.424       .  A
C783       C3397   1.503       .  S
C784        C785   1.424       .  A
C784        C834   1.501       .  S
C785        C786   1.422       .  A
C785       C2150   1.502       .  S
C786        C974   1.497       .  S
C787        C788   1.417   1_655  A
C787        C792   1.418       .  A
C787       C2878   1.499       .  S
C788        C789   1.418   1_556  A
C788       C4614   1.485       .  S
C789        C790   1.419       .  A
C789       C2389   1.505       .  S
C790        C791   1.420   1_455  A
C790        C793   1.493       .  S
C791        C792   1.419   1_554  A
C791       C3662   1.500       .  S
C792        C890   1.491       .  S
C793        C794   1.412       .  A
C793        C798   1.400       .  A
C794        C795   1.408       .  A
C794        N799   1.438   1_455  S
C795        C796   1.405       .  A
C795        H800   1.084       .  S
C796        C797   1.418       .  A
C796        C801   1.489       .  S
C797        C798   1.401       .  A
C797        N802   1.439       .  S
C798        H803   1.077       .  S
N799        H819   1.044   1_655  S
N799        H820   1.046       .  S
C801        C804   1.401       .  A
C801        C808   1.412       .  A
N802        H817   1.046       .  S
N802        H818   1.043       .  S
C804        C805   1.404       .  A
C804        H809   1.084       .  S
C805        C806   1.416       .  A
C805        N810   1.437       .  S
C806        C807   1.405       .  A
C807        C808   1.410       .  A
C807        H811   1.084       .  S
C808        N812   1.437       .  S
N810        H813   1.046       .  S
N810        H814   1.045       .  S
N812        H815   1.046       .  S
N812        H816   1.046       .  S
C821        C822   1.423       .  A
C821        C826   1.407       .  A
C822        C823   1.409       .  A
C822        N827   1.439       .  S
C823        C824   1.400       .  A
C823        H828   1.084       .  S
C824        C825   1.413       .  A
C824        C829   1.497       .  S
C825        C826   1.416       .  A
C825        N830   1.437       .  S
C826        H831   1.083       .  S
N827        H847   1.045       .  S
N827        H848   1.046       .  S
C829        C832   1.402       .  A
C829        C836   1.414       .  A
N830        H845   1.045       .  S
N830        H846   1.046       .  S
C832        C833   1.408       .  A
C832        H837   1.084       .  S
C833        C834   1.414       .  A
C833        N838   1.438       .  S
C834        C835   1.405       .  A
C835        C836   1.414       .  A
C835        H839   1.083       .  S
C836        N840   1.437       .  S
N838        H841   1.046       .  S
N838        H842   1.045       .  S
N840        H843   1.046       .  S
N840        H844   1.046       .  S
C849        C850   1.408       .  A
C849        C854   1.404       .  A
C850        C851   1.408       .  A
C850        N855   1.431       .  S
C851        C852   1.408       .  A
C851        H856   1.084       .  S
C852        C853   1.412       .  A
C852        C857   1.493       .  S
C853        C854   1.405       .  A
C853        N858   1.438       .  S
C854        H859   1.084       .  S
N855        H875   1.045       .  S
N855        H876   1.046       .  S
C857        C860   1.408       .  A
C857        C864   1.409       .  A
N858        H873   1.046       .  S
N858        H874   1.046       .  S
C860        C861   1.412       .  A
C860        H865   1.083       .  S
C861        C862   1.412       .  A
C861        N866   1.437       .  S
C862        C863   1.409       .  A
C863        C864   1.404       .  A
C863        H867   1.084       .  S
C864        N868   1.439       .  S
N866        H869   1.045       .  S
N866        H870   1.045       .  S
N868        H871   1.046       .  S
N868        H872   1.045       .  S
C877        C878   1.412       .  A
C877        C882   1.406       .  A
C878        C879   1.413       .  A
C878        N883   1.437       .  S
C879        C880   1.407       .  A
C879        H884   1.083       .  S
C880        C881   1.408       .  A
C880        C885   1.488       .  S
C881        C882   1.402       .  A
C881        N886   1.439   1_556  S
C882        H887   1.082   1_556  S
N883        H903   1.045       .  S
N883        H904   1.045       .  S
C885        C888   1.406       .  A
C885        C892   1.406   1_556  A
N886        H901   1.046       .  S
N886        H902   1.046       .  S
C888        C889   1.409       .  A
C888        H893   1.084       .  S
C889        C890   1.410       .  A
C889        N894   1.435       .  S
C890        C891   1.404   1_556  A
C891        C892   1.402       .  A
C891        H895   1.084       .  S
C892        N896   1.432       .  S
N894        H897   1.046       .  S
N894        H898   1.042       .  S
N896        H899   1.046       .  S
N896        H900   1.046       .  S
C905        C906   1.409       .  A
C905        C910   1.405   1_554  A
C906        C907   1.408       .  A
C906        N911   1.430       .  S
C907        C908   1.407       .  A
C907        H912   1.084       .  S
C908        C909   1.411   1_554  A
C908        C913   1.495       .  S
C909        C910   1.408       .  A
C909        N914   1.437       .  S
C910        H915   1.084       .  S
N911        H931   1.046       .  S
N911        H932   1.045       .  S
C913        C916   1.407       .  A
C913        C920   1.410       .  A
N914        H929   1.045       .  S
N914        H930   1.046       .  S
C916        C917   1.407       .  A
C916        H921   1.084       .  S
C917        C918   1.418       .  A
C917        N922   1.432       .  S
C918        C919   1.409       .  A
C919        C920   1.407       .  A
C919        H923   1.084       .  S
C920        N924   1.438       .  S
N922        H925   1.045   1_554  S
N922        H926   1.045       .  S
N924        H927   1.045       .  S
N924        H928   1.046   1_554  S
C933        C934   1.418       .  A
C933        C938   1.409       .  A
C934        C935   1.416       .  A
C934        N939   1.437       .  S
C935        C936   1.409       .  A
C935        H940   1.083       .  S
C936        C937   1.411       .  A
C936        C941   1.503       .  S
C937        C938   1.406       .  A
C937        N942   1.438       .  S
C938        H943   1.082       .  S
N939        H959   1.045       .  S
N939        H960   1.046       .  S
C941        C944   1.409       .  A
C941        C948   1.415       .  A
N942        H957   1.045       .  S
N942        H958   1.046       .  S
C944        C945   1.409       .  A
C944        H949   1.083       .  S
C945        C946   1.409       .  A
C945        N950   1.431       .  S
C946        C947   1.405       .  A
C947        C948   1.409       .  A
C947        H951   1.084       .  S
C948        N952   1.438       .  S
N950        H953   1.045       .  S
N950        H954   1.045       .  S
N952        H955   1.045       .  S
N952        H956   1.046       .  S
C961        C962   1.418       .  A
C961        C966   1.406       .  A
C962        C963   1.402       .  A
C962        N967   1.433       .  S
C963        C964   1.403       .  A
C963        H968   1.083       .  S
C964        C965   1.418       .  A
C964        C969   1.504       .  S
C965        C966   1.414       .  A
C965        N970   1.437       .  S
C966        H971   1.083       .  S
N967        H987   1.046       .  S
N967        H988   1.046       .  S
C969        C972   1.405       .  A
C969        C976   1.418       .  A
N970        H985   1.046       .  S
N970        H986   1.046       .  S
C972        C973   1.403       .  A
C972        H977   1.083       .  S
C973        C974   1.420       .  A
C973        N978   1.440       .  S
C974        C975   1.402       .  A
C975        C976   1.411       .  A
C975        H979   1.083       .  S
C976        N980   1.437       .  S
N978        H981   1.045       .  S
N978        H982   1.043       .  S
N980        H983   1.046       .  S
N980        H984   1.045       .  S
C989        C990   1.420       .  A
C989        C994   1.406       .  A
C990        C991   1.407       .  A
C990        N995   1.439       .  S
C991        C992   1.402       .  A
C991        H996   1.084       .  S
C992        C993   1.414       .  A
C992        C997   1.499       .  S
C993        C994   1.414       .  A
C993        N998   1.437       .  S
C994        H999   1.083       .  S
N995       H1015   1.046       .  S
N995       H1016   1.045       .  S
C997       C1000   1.405       .  A
C997       C1004   1.424       .  A
N998       H1013   1.045       .  S
N998       H1014   1.046       .  S
C1000      C1001   1.405       .  A
C1000      H1005   1.084       .  S
C1001      C1002   1.409       .  A
C1001      N1006   1.432       .  S
C1002      C1003   1.404       .  A
C1003      C1004   1.409       .  A
C1003      H1007   1.083       .  S
C1004      N1008   1.439       .  S
N1006      H1009   1.045       .  S
N1006      H1010   1.046       .  S
N1008      H1011   1.047       .  S
N1008      H1012   1.042       .  S
C1017      C1018   1.409       .  A
C1017      C1022   1.403       .  A
C1018      C1019   1.406       .  A
C1018      N1023   1.438       .  S
C1019      C1020   1.405       .  A
C1019      H1024   1.083       .  S
C1020      C1021   1.416       .  A
C1020      C1025   1.498       .  S
C1021      C1022   1.410       .  A
C1021      N1026   1.437       .  S
C1022      H1027   1.081       .  S
N1023      H1043   1.046       .  S
N1023      H1044   1.045       .  S
C1025      C1028   1.404       .  A
C1025      C1032   1.415       .  A
N1026      H1041   1.046       .  S
N1026      H1042   1.046       .  S
C1028      C1029   1.407       .  A
C1028      H1033   1.084       .  S
C1029      C1030   1.418       .  A
C1029      N1034   1.439       .  S
C1030      C1031   1.404       .  A
C1031      C1032   1.411       .  A
C1031      H1035   1.083       .  S
C1032      N1036   1.437       .  S
N1034      H1037   1.046       .  S
N1034      H1038   1.045       .  S
N1036      H1039   1.045       .  S
N1036      H1040   1.046       .  S
C1045      C1046   1.415       .  A
C1045      C1050   1.407       .  A
C1046      C1047   1.407       .  A
C1046      N1051   1.438       .  S
C1047      C1048   1.399       .  A
C1047      H1052   1.084       .  S
C1048      C1049   1.413       .  A
C1048      C1053   1.492       .  S
C1049      C1050   1.414       .  A
C1049      N1054   1.438       .  S
C1050      H1055   1.080       .  S
N1051      H1071   1.046       .  S
N1051      H1072   1.045       .  S
C1053      C1056   1.407       .  A
C1053      C1060   1.409       .  A
N1054      H1069   1.045       .  S
N1054      H1070   1.045       .  S
C1056      C1057   1.415       .  A
C1056      H1061   1.083       .  S
C1057      C1058   1.411       .  A
C1057      N1062   1.436       .  S
C1058      C1059   1.408       .  A
C1059      C1060   1.408       .  A
C1059      H1063   1.084       .  S
C1060      N1064   1.439       .  S
N1062      H1065   1.046       .  S
N1062      H1066   1.045       .  S
N1064      H1067   1.045       .  S
N1064      H1068   1.045       .  S
C1073      C1074   1.411       .  A
C1073      C1078   1.404       .  A
C1074      C1075   1.414       .  A
C1074      N1079   1.437       .  S
C1075      C1076   1.409       .  A
C1075      H1080   1.083       .  S
C1076      C1077   1.410       .  A
C1076      C1081   1.494       .  S
C1077      C1078   1.404       .  A
C1077      N1082   1.439       .  S
C1078      H1083   1.080       .  S
N1079      H1099   1.045       .  S
N1079      H1100   1.046       .  S
C1081      C1084   1.408       .  A
C1081      C1088   1.412       .  A
N1082      H1097   1.045       .  S
N1082      H1098   1.046       .  S
C1084      C1085   1.407       .  A
C1084      H1089   1.084       .  S
C1085      C1086   1.407       .  A
C1085      N1090   1.431       .  S
C1086      C1087   1.402       .  A
C1087      C1088   1.406       .  A
C1087      H1091   1.083       .  S
C1088      N1092   1.437       .  S
N1090      H1093   1.046       .  S
N1090      H1094   1.045       .  S
N1092      H1095   1.045       .  S
N1092      H1096   1.046       .  S
C1101      C1102   1.411       .  A
C1101      C1106   1.404       .  A
C1102      C1103   1.402       .  A
C1102      N1107   1.433       .  S
C1103      C1104   1.400       .  A
C1103      H1108   1.084       .  S
C1104      C1105   1.414       .  A
C1104      C1109   1.481       .  S
C1105      C1106   1.401       .  A
C1105      N1110   1.433       .  S
C1106      H1111   1.082       .  S
N1107      H1127   1.046       .  S
N1107      H1128   1.045       .  S
C1109      C1112   1.406       .  A
C1109      C1116   1.403       .  A
N1110      H1125   1.044       .  S
N1110      H1126   1.046       .  S
C1112      C1113   1.415       .  A
C1112      H1117   1.083       .  S
C1113      C1114   1.414       .  A
C1113      N1118   1.437       .  S
C1114      C1115   1.405       .  A
C1115      C1116   1.396       .  A
C1115      H1119   1.084       .  S
C1116      N1120   1.433       .  S
N1118      H1121   1.045       .  S
N1118      H1122   1.045       .  S
N1120      H1123   1.046       .  S
N1120      H1124   1.046       .  S
C1129      C1130   1.414       .  A
C1129      C1134   1.407       .  A
C1130      C1131   1.394       .  A
C1130      N1135   1.434       .  S
C1131      C1132   1.398       .  A
C1131      H1136   1.085       .  S
C1132      C1133   1.408       .  A
C1132      C1137   1.472       .  S
C1133      C1134   1.407       .  A
C1133      N1138   1.437       .  S
C1134      H1139   1.083       .  S
N1135      H1155   1.046       .  S
N1135      H1156   1.046       .  S
C1137      C1140   1.400       .  A
C1137      C1144   1.411       .  A
N1138      H1153   1.046       .  S
N1138      H1154   1.045       .  S
C1140      C1141   1.401       .  A
C1140      H1145   1.084       .  S
C1141      C1142   1.409       .  A
C1141      N1146   1.438       .  S
C1142      C1143   1.397       .  A
C1143      C1144   1.401       .  A
C1143      H1147   1.082       .  S
C1144      N1148   1.438       .  S
N1146      H1149   1.046       .  S
N1146      H1150   1.045       .  S
N1148      H1151   1.046       .  S
N1148      H1152   1.045       .  S
C1157      C1158   1.408       .  A
C1157      C1162   1.396       .  A
C1158      C1159   1.403       .  A
C1158      N1163   1.432       .  S
C1159      C1160   1.401       .  A
C1159      H1164   1.084       .  S
C1160      C1161   1.411       .  A
C1160      C1165   1.477       .  S
C1161      C1162   1.401       .  A
C1161      N1166   1.438       .  S
C1162      H1167   1.077       .  S
N1163      H1183   1.046       .  S
N1163      H1184   1.045       .  S
C1165      C1168   1.401       .  A
C1165      C1172   1.409       .  A
N1166      H1181   1.046       .  S
N1166      H1182   1.045       .  S
C1168      C1169   1.395       .  A
C1168      H1173   1.084       .  S
C1169      C1170   1.408       .  A
C1169      N1174   1.433       .  S
C1170      C1171   1.406       .  A
C1171      C1172   1.408       .  A
C1171      H1175   1.084       .  S
C1172      N1176   1.437       .  S
N1174      H1177   1.046       .  S
N1174      H1178   1.046       .  S
N1176      H1179   1.046       .  S
N1176      H1180   1.045       .  S
C1185      C1186   1.413       .  A
C1185      C1190   1.403       .  A
C1186      C1187   1.407       .  A
C1186      N1191   1.432       .  S
C1187      C1188   1.404       .  A
C1187      H1192   1.084       .  S
C1188      C1189   1.416       .  A
C1188      C1193   1.502       .  S
C1189      C1190   1.412       .  A
C1189      N1194   1.432       .  S
C1190      H1195   1.083       .  S
N1191      H1211   1.045       .  S
N1191      H1212   1.045       .  S
C1193      C1196   1.411       .  A
C1193      C1200   1.412       .  A
N1194      H1209   1.046       .  S
N1194      H1210   1.045       .  S
C1196      C1197   1.413       .  A
C1196      H1201   1.083       .  S
C1197      C1198   1.409       .  A
C1197      N1202   1.431       .  S
C1198      C1199   1.403       .  A
C1199      C1200   1.405       .  A
C1199      H1203   1.084       .  S
C1200      N1204   1.432       .  S
N1202      H1205   1.045       .  S
N1202      H1206   1.046       .  S
N1204      H1207   1.046       .  S
N1204      H1208   1.045       .  S
C1213      C1214   1.409       .  A
C1213      C1218   1.405       .  A
C1214      C1215   1.410       .  A
C1214      N1219   1.431       .  S
C1215      C1216   1.410       .  A
C1215      H1220   1.083       .  S
C1216      C1217   1.415       .  A
C1216      C1221   1.505       .  S
C1217      C1218   1.409       .  A
C1217      N1222   1.438       .  S
C1218      H1223   1.084       .  S
N1219      H1239   1.046       .  S
N1219      H1240   1.045       .  S
C1221      C1224   1.408       .  A
C1221      C1228   1.415       .  A
N1222      H1237   1.046       .  S
N1222      H1238   1.046       .  S
C1224      C1225   1.411       .  A
C1224      H1229   1.083       .  S
C1225      C1226   1.413       .  A
C1225      N1230   1.438       .  S
C1226      C1227   1.405       .  A
C1227      C1228   1.411       .  A
C1227      H1231   1.084       .  S
C1228      N1232   1.437       .  S
N1230      H1233   1.046       .  S
N1230      H1234   1.045       .  S
N1232      H1235   1.046       .  S
N1232      H1236   1.046       .  S
C1241      C1242   1.416       .  A
C1241      C1246   1.408       .  A
C1242      C1243   1.411       .  A
C1242      N1247   1.438       .  S
C1243      C1244   1.404       .  A
C1243      H1248   1.083       .  S
C1244      C1245   1.412       .  A
C1244      C1249   1.501       .  S
C1245      C1246   1.411       .  A
C1245      N1250   1.432       .  S
C1246      H1251   1.082       .  S
N1247      H1267   1.045       .  S
N1247      H1268   1.046       .  S
C1249      C1252   1.407       .  A
C1249      C1256   1.411       .  A
N1250      H1265   1.045       .  S
N1250      H1266   1.046       .  S
C1252      C1253   1.410       .  A
C1252      H1257   1.084       .  S
C1253      C1254   1.411       .  A
C1253      N1258   1.432       .  S
C1254      C1255   1.407       .  A
C1255      C1256   1.410       .  A
C1255      H1259   1.084       .  S
C1256      N1260   1.432       .  S
N1258      H1261   1.046       .  S
N1258      H1262   1.046       .  S
N1260      H1263   1.045       .  S
N1260      H1264   1.046       .  S
C1269      C1270   1.412       .  A
C1269      C1274   1.403       .  A
C1270      C1271   1.410       .  A
C1270      N1275   1.438       .  S
C1271      C1272   1.405       .  A
C1271      H1276   1.083       .  S
C1272      C1273   1.417       .  A
C1272      C1277   1.502       .  S
C1273      C1274   1.411       .  A
C1273      N1278   1.437       .  S
C1274      H1279   1.082       .  S
N1275      H1295   1.044       .  S
N1275      H1296   1.045       .  S
C1277      C1280   1.402       .  A
C1277      C1284   1.416       .  A
N1278      H1293   1.046       .  S
N1278      H1294   1.046       .  S
C1280      C1281   1.407       .  A
C1280      H1285   1.084       .  S
C1281      C1282   1.418       .  A
C1281      N1286   1.437       .  S
C1282      C1283   1.406       .  A
C1283      C1284   1.416       .  A
C1283      H1287   1.083       .  S
C1284      N1288   1.437       .  S
N1286      H1289   1.046       .  S
N1286      H1290   1.045       .  S
N1288      H1291   1.046       .  S
N1288      H1292   1.046       .  S
C1297      C1298   1.412       .  A
C1297      C1302   1.404       .  A
C1298      C1299   1.409       .  A
C1298      N1303   1.430       .  S
C1299      C1300   1.408       .  A
C1299      H1304   1.083       .  S
C1300      C1301   1.418       .  A
C1300      C1305   1.509       .  S
C1301      C1302   1.411       .  A
C1301      N1306   1.437       .  S
C1302      H1307   1.084       .  S
N1303      H1323   1.045       .  S
N1303      H1324   1.046       .  S
C1305      C1308   1.409       .  A
C1305      C1312   1.420       .  A
N1306      H1321   1.045       .  S
N1306      H1322   1.046       .  S
C1308      C1309   1.406       .  A
C1308      H1313   1.083       .  S
C1309      C1310   1.408       .  A
C1309      N1314   1.432       .  S
C1310      C1311   1.404       .  A
C1311      C1312   1.415       .  A
C1311      H1315   1.084       .  S
C1312      N1316   1.438       .  S
N1314      H1317   1.046       .  S
N1314      H1318   1.046       .  S
N1316      H1319   1.046       .  S
N1316      H1320   1.046       .  S
C1325      C1326   1.410       .  A
C1325      C1330   1.399       .  A
C1326      C1327   1.414       .  A
C1326      N1331   1.436       .  S
C1327      C1328   1.412       .  A
C1327      H1332   1.083       .  S
C1328      C1329   1.415       .  A
C1328      C1333   1.505       .  S
C1329      C1330   1.403       .  A
C1329      N1334   1.438       .  S
C1330      H1335   1.083       .  S
N1331      H1351   1.046       .  S
N1331      H1352   1.045       .  S
C1333      C1336   1.407       .  A
C1333      C1340   1.418       .  A
N1334      H1349   1.045       .  S
N1334      H1350   1.046       .  S
C1336      C1337   1.409       .  A
C1336      H1341   1.083       .  S
C1337      C1338   1.414       .  A
C1337      N1342   1.433       .  S
C1338      C1339   1.403       .  A
C1339      C1340   1.409       .  A
C1339      H1343   1.084       .  S
C1340      N1344   1.438       .  S
N1342      H1345   1.046       .  S
N1342      H1346   1.045       .  S
N1344      H1347   1.046       .  S
N1344      H1348   1.046       .  S
C1353      C1354   1.405       .  A
C1353      C1358   1.406       .  A
C1354      C1355   1.389       .  A
C1354      N1359   1.430       .  S
C1355      C1356   1.398       .  A
C1355      H1360   1.085       .  S
C1356      C1357   1.408       .  A
C1356      C1361   1.469       .  S
C1357      C1358   1.406       .  A
C1357      N1362   1.437   1_545  S
C1358      H1363   1.084   1_545  S
N1359      H1379   1.045       .  S
N1359      H1380   1.046       .  S
C1361      C1364   1.397       .  A
C1361      C1368   1.411       .  A
N1362      H1377   1.046       .  S
N1362      H1378   1.046       .  S
C1364      C1365   1.402       .  A
C1364      H1369   1.084       .  S
C1365      C1366   1.415       .  A
C1365      N1370   1.438       .  S
C1366      C1367   1.398       .  A
C1367      C1368   1.397       .  A
C1367      H1371   1.084       .  S
C1368      N1372   1.439       .  S
N1370      H1373   1.046       .  S
N1370      H1374   1.045       .  S
N1372      H1375   1.046       .  S
N1372      H1376   1.045       .  S
C1381      C1382   1.412       .  A
C1381      C1386   1.400       .  A
C1382      C1383   1.405       .  A
C1382      N1387   1.437       .  S
C1383      C1384   1.401       .  A
C1383      H1388   1.084       .  S
C1384      C1385   1.406       .  A
C1384      C1389   1.471       .  S
C1385      C1386   1.392       .  A
C1385      N1390   1.433       .  S
C1386      H1391   1.082       .  S
N1387      H1407   1.046       .  S
N1387      H1408   1.045       .  S
C1389      C1392   1.400       .  A
C1389      C1396   1.410       .  A
N1390      H1405   1.046       .  S
N1390      H1406   1.046       .  S
C1392      C1393   1.404       .  A
C1392      H1397   1.084       .  S
C1393      C1394   1.412       .  A
C1393      N1398   1.438       .  S
C1394      C1395   1.397       .  A
C1395      C1396   1.396       .  A
C1395      H1399   1.083       .  S
C1396      N1400   1.439       .  S
N1398      H1401   1.046       .  S
N1398      H1402   1.045       .  S
N1400      H1403   1.046       .  S
N1400      H1404   1.045       .  S
C1409      C1410   1.409       .  A
C1409      C1414   1.406       .  A
C1410      C1411   1.392       .  A
C1410      N1415   1.433       .  S
C1411      C1412   1.400       .  A
C1411      H1416   1.084       .  S
C1412      C1413   1.410       .  A
C1412      C1417   1.477       .  S
C1413      C1414   1.409       .  A
C1413      N1418   1.437       .  S
C1414      H1419   1.083   1_554  S
N1415      H1435   1.046       .  S
N1415      H1436   1.045       .  S
C1417      C1420   1.399       .  A
C1417      C1424   1.411       .  A
N1418      H1433   1.045   1_554  S
N1418      H1434   1.046   1_554  S
C1420      C1421   1.401       .  A
C1420      H1425   1.084       .  S
C1421      C1422   1.421       .  A
C1421      N1426   1.439       .  S
C1422      C1423   1.399       .  A
C1423      C1424   1.399       .  A
C1423      H1427   1.081       .  S
C1424      N1428   1.438       .  S
N1426      H1429   1.046       .  S
N1426      H1430   1.040       .  S
N1428      H1431   1.046       .  S
N1428      H1432   1.045       .  S
C1437      C1438   1.418       .  A
C1437      C1442   1.405       .  A
C1438      C1439   1.410       .  A
C1438      N1443   1.439       .  S
C1439      C1440   1.403       .  A
C1439      H1444   1.083       .  S
C1440      C1441   1.412       .  A
C1440      C1445   1.495       .  S
C1441      C1442   1.409       .  A
C1441      N1446   1.438       .  S
C1442      H1447   1.081       .  S
N1443      H1463   1.045       .  S
N1443      H1464   1.046       .  S
C1445      C1448   1.404       .  A
C1445      C1452   1.418       .  A
N1446      H1461   1.045       .  S
N1446      H1462   1.046       .  S
C1448      C1449   1.406       .  A
C1448      H1453   1.084       .  S
C1449      C1450   1.411       .  A
C1449      N1454   1.438       .  S
C1450      C1451   1.403       .  A
C1451      C1452   1.405       .  A
C1451      H1455   1.083       .  S
C1452      N1456   1.432       .  S
N1454      H1457   1.046       .  S
N1454      H1458   1.046   1_554  S
N1456      H1459   1.046       .  S
N1456      H1460   1.043       .  S
C1465      C1466   1.415       .  A
C1465      C1470   1.403       .  A
C1466      C1467   1.404       .  A
C1466      N1471   1.438       .  S
C1467      C1468   1.401       .  A
C1467      H1472   1.084       .  S
C1468      C1469   1.412       .  A
C1468      C1473   1.484       .  S
C1469      C1470   1.407       .  A
C1469      N1474   1.437       .  S
C1470      H1475   1.084       .  S
N1471      H1491   1.046       .  S
N1471      H1492   1.046       .  S
C1473      C1476   1.407       .  A
C1473      C1480   1.407       .  A
N1474      H1489   1.045       .  S
N1474      H1490   1.046       .  S
C1476      C1477   1.410       .  A
C1476      H1481   1.083       .  S
C1477      C1478   1.409       .  A
C1477      N1482   1.436       .  S
C1478      C1479   1.401       .  A
C1479      C1480   1.398       .  A
C1479      H1483   1.084       .  S
C1480      N1484   1.433       .  S
N1482      H1485   1.045       .  S
N1482      H1486   1.045       .  S
N1484      H1487   1.045       .  S
N1484      H1488   1.046       .  S
C1493      C1494   1.411       .  A
C1493      C1498   1.406       .  A
C1494      C1495   1.410       .  A
C1494      N1499   1.431       .  S
C1495      C1496   1.410       .  A
C1495      H1500   1.083       .  S
C1496      C1497   1.414       .  A
C1496      C1501   1.508       .  S
C1497      C1498   1.408       .  A
C1497      N1502   1.432       .  S
C1498      H1503   1.084   1_545  S
N1499      H1519   1.045       .  S
N1499      H1520   1.045       .  S
C1501      C1504   1.408   1_556  A
C1501      C1508   1.416       .  A
N1502      H1517   1.046   1_546  S
N1502      H1518   1.046   1_545  S
C1504      C1505   1.411       .  A
C1504      H1509   1.083       .  S
C1505      C1506   1.416   1_554  A
C1505      N1510   1.438       .  S
C1506      C1507   1.404       .  A
C1507      C1508   1.411       .  A
C1507      H1511   1.081       .  S
C1508      N1512   1.437       .  S
N1510      H1513   1.046       .  S
N1510      H1514   1.046       .  S
N1512      H1515   1.045       .  S
N1512      H1516   1.046       .  S
C1521      C1522   1.417       .  A
C1521      C1526   1.404       .  A
C1522      C1523   1.408       .  A
C1522      N1527   1.437       .  S
C1523      C1524   1.410       .  A
C1523      H1528   1.083       .  S
C1524      C1525   1.408       .  A
C1524      C1529   1.497       .  S
C1525      C1526   1.400       .  A
C1525      N1530   1.432       .  S
C1526      H1531   1.083       .  S
N1527      H1547   1.043       .  S
N1527      H1548   1.046       .  S
C1529      C1532   1.409       .  A
C1529      C1536   1.409       .  A
N1530      H1545   1.046       .  S
N1530      H1546   1.046       .  S
C1532      C1533   1.413       .  A
C1532      H1537   1.083       .  S
C1533      C1534   1.413       .  A
C1533      N1538   1.437       .  S
C1534      C1535   1.411       .  A
C1535      C1536   1.404       .  A
C1535      H1539   1.082       .  S
C1536      N1540   1.439       .  S
N1538      H1541   1.046       .  S
N1538      H1542   1.045       .  S
N1540      H1543   1.046       .  S
N1540      H1544   1.046       .  S
C1549      C1550   1.409       .  A
C1549      C1554   1.401       .  A
C1550      C1551   1.408       .  A
C1550      N1555   1.437       .  S
C1551      C1552   1.404       .  A
C1551      H1556   1.084       .  S
C1552      C1553   1.404       .  A
C1552      C1557   1.465       .  S
C1553      C1554   1.390       .  A
C1553      N1558   1.439       .  S
C1554      H1559   1.083       .  S
N1555      H1575   1.045       .  S
N1555      H1576   1.046       .  S
C1557      C1560   1.394       .  A
C1557      C1564   1.405       .  A
N1558      H1573   1.046       .  S
N1558      H1574   1.046       .  S
C1560      C1561   1.388       .  A
C1560      H1565   1.085       .  S
C1561      C1562   1.417       .  A
C1561      N1566   1.434       .  S
C1562      C1563   1.408       .  A
C1563      C1564   1.407       .  A
C1563      H1567   1.083       .  S
C1564      N1568   1.436       .  S
N1566      H1569   1.046       .  S
N1566      H1570   1.045       .  S
N1568      H1571   1.045       .  S
N1568      H1572   1.046       .  S
C1577      C1578   1.409       .  A
C1577      C1582   1.398       .  A
C1578      C1579   1.403       .  A
C1578      N1583   1.438   1_565  S
C1579      C1580   1.399       .  A
C1579      H1584   1.084       .  S
C1580      C1581   1.410       .  A
C1580      C1585   1.471       .  S
C1581      C1582   1.402       .  A
C1581      N1586   1.439       .  S
C1582      H1587   1.079       .  S
N1583      H1603   1.046       .  S
N1583      H1604   1.045       .  S
C1585      C1588   1.398       .  A
C1585      C1592   1.409       .  A
N1586      H1601   1.046       .  S
N1586      H1602   1.045       .  S
C1588      C1589   1.405       .  A
C1588      H1593   1.084       .  S
C1589      C1590   1.415       .  A
C1589      N1594   1.438       .  S
C1590      C1591   1.400       .  A
C1591      C1592   1.401       .  A
C1591      H1595   1.083       .  S
C1592      N1596   1.439       .  S
N1594      H1597   1.046       .  S
N1594      H1598   1.045       .  S
N1596      H1599   1.046       .  S
N1596      H1600   1.045       .  S
C1605      C1606   1.412       .  A
C1605      C1610   1.407       .  A
C1606      C1607   1.408       .  A
C1606      N1611   1.438       .  S
C1607      C1608   1.408       .  A
C1607      H1612   1.083       .  S
C1608      C1609   1.415       .  A
C1608      C1613   1.503       .  S
C1609      C1610   1.410       .  A
C1609      N1614   1.438       .  S
C1610      H1615   1.084       .  S
N1611      H1631   1.045       .  S
N1611      H1632   1.046       .  S
C1613      C1616   1.410       .  A
C1613      C1620   1.412       .  A
N1614      H1629   1.045       .  S
N1614      H1630   1.046       .  S
C1616      C1617   1.413       .  A
C1616      H1621   1.083       .  S
C1617      C1618   1.412       .  A
C1617      N1622   1.434       .  S
C1618      C1619   1.402       .  A
C1619      C1620   1.401       .  A
C1619      H1623   1.084       .  S
C1620      N1624   1.432       .  S
N1622      H1625   1.046       .  S
N1622      H1626   1.044       .  S
N1624      H1627   1.046       .  S
N1624      H1628   1.046       .  S
C1633      C1634   1.424       .  A
C1633      C1638   1.407       .  A
C1634      C1635   1.406       .  A
C1634      N1639   1.438       .  S
C1635      C1636   1.402       .  A
C1635      H1640   1.083       .  S
C1636      C1637   1.417       .  A
C1636      C1641   1.507       .  S
C1637      C1638   1.416       .  A
C1637      N1642   1.437       .  S
C1638      H1643   1.083       .  S
N1639      H1659   1.050       .  S
N1639      H1660   1.041       .  S
C1641      C1644   1.406   1_565  A
C1641      C1648   1.418       .  A
N1642      H1657   1.045   1_565  S
N1642      H1658   1.046       .  S
C1644      C1645   1.410       .  A
C1644      H1649   1.083       .  S
C1645      C1646   1.414   1_545  A
C1645      N1650   1.437       .  S
C1646      C1647   1.404       .  A
C1647      C1648   1.411       .  A
C1647      H1651   1.081       .  S
C1648      N1652   1.438       .  S
N1650      H1653   1.044       .  S
N1650      H1654   1.046       .  S
N1652      H1655   1.047       .  S
N1652      H1656   1.044       .  S
C1661      C1662   1.414       .  A
C1661      C1666   1.401       .  A
C1662      C1663   1.404       .  A
C1662      N1667   1.438       .  S
C1663      C1664   1.398       .  A
C1663      H1668   1.084       .  S
C1664      C1665   1.408       .  A
C1664      C1669   1.468       .  S
C1665      C1666   1.399       .  A
C1665      N1670   1.438       .  S
C1666      H1671   1.084       .  S
N1667      H1687   1.045       .  S
N1667      H1688   1.046       .  S
C1669      C1672   1.397       .  A
C1669      C1676   1.411       .  A
N1670      H1685   1.045       .  S
N1670      H1686   1.045       .  S
C1672      C1673   1.400       .  A
C1672      H1677   1.084       .  S
C1673      C1674   1.409       .  A
C1673      N1678   1.438       .  S
C1674      C1675   1.399       .  A
C1675      C1676   1.404       .  A
C1675      H1679   1.081       .  S
C1676      N1680   1.439       .  S
N1678      H1681   1.046       .  S
N1678      H1682   1.045       .  S
N1680      H1683   1.046       .  S
N1680      H1684   1.045       .  S
C1689      C1690   1.409       .  A
C1689      C1694   1.407       .  A
C1690      C1691   1.393       .  A
C1690      N1695   1.431       .  S
C1691      C1692   1.399       .  A
C1691      H1696   1.085       .  S
C1692      C1693   1.407       .  A
C1692      C1697   1.473       .  S
C1693      C1694   1.407       .  A
C1693      N1698   1.437       .  S
C1694      H1699   1.083       .  S
N1695      H1715   1.046       .  S
N1695      H1716   1.046       .  S
C1697      C1700   1.400       .  A
C1697      C1704   1.411       .  A
N1698      H1713   1.046       .  S
N1698      H1714   1.045       .  S
C1700      C1701   1.404       .  A
C1700      H1705   1.084       .  S
C1701      C1702   1.413       .  A
C1701      N1706   1.438       .  S
C1702      C1703   1.397       .  A
C1703      C1704   1.398       .  A
C1703      H1707   1.083       .  S
C1704      N1708   1.438       .  S
N1706      H1709   1.046       .  S
N1706      H1710   1.045       .  S
N1708      H1711   1.046       .  S
N1708      H1712   1.046       .  S
C1717      C1718   1.420       .  A
C1717      C1722   1.405       .  A
C1718      C1719   1.409       .  A
C1718      N1723   1.439       .  S
C1719      C1720   1.402       .  A
C1719      H1724   1.084       .  S
C1720      C1721   1.414       .  A
C1720      C1725   1.497       .  S
C1721      C1722   1.413       .  A
C1721      N1726   1.437       .  S
C1722      H1727   1.083       .  S
N1723      H1743   1.046       .  S
N1723      H1744   1.046       .  S
C1725      C1728   1.402       .  A
C1725      C1732   1.416       .  A
N1726      H1741   1.046       .  S
N1726      H1742   1.046       .  S
C1728      C1729   1.405       .  A
C1728      H1733   1.083       .  S
C1729      C1730   1.411       .  A
C1729      N1734   1.438       .  S
C1730      C1731   1.405       .  A
C1731      C1732   1.415       .  A
C1731      H1735   1.083       .  S
C1732      N1736   1.437       .  S
N1734      H1737   1.045       .  S
N1734      H1738   1.045       .  S
N1736      H1739   1.046       .  S
N1736      H1740   1.046       .  S
C1745      C1746   1.413       .  A
C1745      C1750   1.404       .  A
C1746      C1747   1.407       .  A
C1746      N1751   1.433       .  S
C1747      C1748   1.402       .  A
C1747      H1752   1.084       .  S
C1748      C1749   1.415       .  A
C1748      C1753   1.493       .  S
C1749      C1750   1.415       .  A
C1749      N1754   1.438       .  S
C1750      H1755   1.083       .  S
N1751      H1771   1.046       .  S
N1751      H1772   1.045       .  S
C1753      C1756   1.407       .  A
C1753      C1760   1.411       .  A
N1754      H1769   1.046       .  S
N1754      H1770   1.043       .  S
C1756      C1757   1.410       .  A
C1756      H1761   1.084       .  S
C1757      C1758   1.416       .  A
C1757      N1762   1.437       .  S
C1758      C1759   1.405       .  A
C1759      C1760   1.407       .  A
C1759      H1763   1.084       .  S
C1760      N1764   1.438       .  S
N1762      H1765   1.045       .  S
N1762      H1766   1.044       .  S
N1764      H1767   1.046       .  S
N1764      H1768   1.043       .  S
C1773      C1774   1.407       .  A
C1773      C1778   1.404       .  A
C1774      C1775   1.408       .  A
C1774      N1779   1.429       .  S
C1775      C1776   1.408       .  A
C1775      H1780   1.084       .  S
C1776      C1777   1.411       .  A
C1776      C1781   1.497       .  S
C1777      C1778   1.406       .  A
C1777      N1782   1.432       .  S
C1778      H1783   1.084   1_565  S
N1779      H1799   1.046       .  S
N1779      H1800   1.045       .  S
C1781      C1784   1.404       .  A
C1781      C1788   1.414       .  A
N1782      H1797   1.045       .  S
N1782      H1798   1.046   1_565  S
C1784      C1785   1.406       .  A
C1784      H1789   1.084       .  S
C1785      C1786   1.415       .  A
C1785      N1790   1.438       .  S
C1786      C1787   1.404       .  A
C1787      C1788   1.411       .  A
C1787      H1791   1.084       .  S
C1788      N1792   1.432       .  S
N1790      H1793   1.046       .  S
N1790      H1794   1.045       .  S
N1792      H1795   1.046       .  S
N1792      H1796   1.045       .  S
C1801      C1802   1.418       .  A
C1801      C1806   1.407       .  A
C1802      C1803   1.407       .  A
C1802      N1807   1.439       .  S
C1803      C1804   1.401       .  A
C1803      H1808   1.084       .  S
C1804      C1805   1.412       .  A
C1804      C1809   1.491       .  S
C1805      C1806   1.412       .  A
C1805      N1810   1.437       .  S
C1806      H1811   1.084       .  S
N1807      H1827   1.046       .  S
N1807      H1828   1.045       .  S
C1809      C1812   1.401       .  A
C1809      C1816   1.413       .  A
N1810      H1825   1.046       .  S
N1810      H1826   1.046       .  S
C1812      C1813   1.405       .  A
C1812      H1817   1.084       .  S
C1813      C1814   1.412       .  A
C1813      N1818   1.438       .  S
C1814      C1815   1.405       .  A
C1815      C1816   1.413       .  A
C1815      H1819   1.083       .  S
C1816      N1820   1.437       .  S
N1818      H1821   1.046       .  S
N1818      H1822   1.044   1_545  S
N1820      H1823   1.046       .  S
N1820      H1824   1.046       .  S
C1829      C1830   1.417       .  A
C1829      C1834   1.405       .  A
C1830      C1831   1.408       .  A
C1830      N1835   1.437       .  S
C1831      C1832   1.402       .  A
C1831      H1836   1.084       .  S
C1832      C1833   1.415       .  A
C1832      C1837   1.498       .  S
C1833      C1834   1.414       .  A
C1833      N1838   1.437       .  S
C1834      H1839   1.083       .  S
N1835      H1855   1.045   1_545  S
N1835      H1856   1.046   1_545  S
C1837      C1840   1.404       .  A
C1837      C1844   1.417       .  A
N1838      H1853   1.045       .  S
N1838      H1854   1.046       .  S
C1840      C1841   1.400   1_545  A
C1840      H1845   1.084   1_545  S
C1841      C1842   1.415   1_565  A
C1841      N1846   1.434       .  S
C1842      C1843   1.402       .  A
C1843      C1844   1.413       .  A
C1843      H1847   1.083       .  S
C1844      N1848   1.437       .  S
N1846      H1849   1.040       .  S
N1846      H1850   1.045       .  S
N1848      H1851   1.046       .  S
N1848      H1852   1.045       .  S
C1857      C1858   1.417       .  A
C1857      C1862   1.405       .  A
C1858      C1859   1.401       .  A
C1858      N1863   1.433       .  S
C1859      C1860   1.402       .  A
C1859      H1864   1.084       .  S
C1860      C1861   1.412       .  A
C1860      C1865   1.493       .  S
C1861      C1862   1.408       .  A
C1861      N1866   1.432       .  S
C1862      H1867   1.082       .  S
N1863      H1883   1.045       .  S
N1863      H1884   1.042       .  S
C1865      C1868   1.400       .  A
C1865      C1872   1.415       .  A
N1866      H1881   1.045       .  S
N1866      H1882   1.046       .  S
C1868      C1869   1.401       .  A
C1868      H1873   1.084       .  S
C1869      C1870   1.416       .  A
C1869      N1874   1.433       .  S
C1870      C1871   1.407       .  A
C1871      C1872   1.415       .  A
C1871      H1875   1.083       .  S
C1872      N1876   1.437       .  S
N1874      H1877   1.046       .  S
N1874      H1878   1.046       .  S
N1876      H1879   1.045       .  S
N1876      H1880   1.046       .  S
C1885      C1886   1.407       .  A
C1885      C1890   1.404       .  A
C1886      C1887   1.408       .  A
C1886      N1891   1.437       .  S
C1887      C1888   1.406       .  A
C1887      H1892   1.084       .  S
C1888      C1889   1.405       .  A
C1888      C1893   1.474       .  S
C1889      C1890   1.396       .  A
C1889      N1894   1.438       .  S
C1890      H1895   1.084       .  S
N1891      H1911   1.045       .  S
N1891      H1912   1.045       .  S
C1893      C1896   1.399       .  A
C1893      C1900   1.407       .  A
N1894      H1909   1.046       .  S
N1894      H1910   1.045       .  S
C1896      C1897   1.394       .  A
C1896      H1901   1.084       .  S
C1897      C1898   1.412       .  A
C1897      N1902   1.433       .  S
C1898      C1899   1.408       .  A
C1899      C1900   1.407       .  A
C1899      H1903   1.083       .  S
C1900      N1904   1.437       .  S
N1902      H1905   1.046       .  S
N1902      H1906   1.046       .  S
N1904      H1907   1.046       .  S
N1904      H1908   1.046       .  S
C1913      C1914   1.412       .  A
C1913      C1918   1.401       .  A
C1914      C1915   1.411       .  A
C1914      N1919   1.436       .  S
C1915      C1916   1.406       .  A
C1915      H1920   1.083       .  S
C1916      C1917   1.406       .  A
C1916      C1921   1.476       .  S
C1917      C1918   1.391       .  A
C1917      N1922   1.439       .  S
C1918      H1923   1.082       .  S
N1919      H1939   1.045       .  S
N1919      H1940   1.046       .  S
C1921      C1924   1.399       .  A
C1921      C1928   1.408       .  A
N1922      H1937   1.045       .  S
N1922      H1938   1.045       .  S
C1924      C1925   1.388       .  A
C1924      H1929   1.085       .  S
C1925      C1926   1.413       .  A
C1925      N1930   1.434       .  S
C1926      C1927   1.409       .  A
C1927      C1928   1.411       .  A
C1927      H1931   1.083       .  S
C1928      N1932   1.437       .  S
N1930      H1933   1.046       .  S
N1930      H1934   1.046       .  S
N1932      H1935   1.045       .  S
N1932      H1936   1.046       .  S
C1941      C1942   1.411       .  A
C1941      C1946   1.396       .  A
C1942      C1943   1.402       .  A
C1942      N1947   1.438       .  S
C1943      C1944   1.401       .  A
C1943      H1948   1.083       .  S
C1944      C1945   1.413       .  A
C1944      C1949   1.475       .  S
C1945      C1946   1.396       .  A
C1945      N1950   1.439       .  S
C1946      H1951   1.081       .  S
N1947      H1967   1.045       .  S
N1947      H1968   1.046       .  S
C1949      C1952   1.399       .  A
C1949      C1956   1.411       .  A
N1950      H1965   1.046       .  S
N1950      H1966   1.045       .  S
C1952      C1953   1.390       .  A
C1952      H1957   1.084       .  S
C1953      C1954   1.408       .  A
C1953      N1958   1.433       .  S
C1954      C1955   1.405       .  A
C1955      C1956   1.406       .  A
C1955      H1959   1.084   1_545  S
C1956      N1960   1.437       .  S
N1958      H1961   1.046       .  S
N1958      H1962   1.045       .  S
N1960      H1963   1.046   1_545  S
N1960      H1964   1.046   1_545  S
C1969      C1970   1.408   1_545  A
C1969      C1974   1.404       .  A
C1970      C1971   1.405       .  A
C1970      N1975   1.432       .  S
C1971      C1972   1.403   1_565  A
C1971      H1976   1.084       .  S
C1972      C1973   1.415       .  A
C1972      C1977   1.492       .  S
C1973      C1974   1.413       .  A
C1973      N1978   1.438       .  S
C1974      H1979   1.082       .  S
N1975      H1995   1.045       .  S
N1975      H1996   1.045       .  S
C1977      C1980   1.405       .  A
C1977      C1984   1.412   1_545  A
N1978      H1993   1.046       .  S
N1978      H1994   1.043       .  S
C1980      C1981   1.413       .  A
C1980      H1985   1.084       .  S
C1981      C1982   1.411       .  A
C1981      N1986   1.435       .  S
C1982      C1983   1.405   1_545  A
C1983      C1984   1.410       .  A
C1983      H1987   1.083       .  S
C1984      N1988   1.439       .  S
N1986      H1989   1.046       .  S
N1986      H1990   1.045       .  S
N1988      H1991   1.046       .  S
N1988      H1992   1.043       .  S
C1997      C1998   1.415       .  A
C1997      C2002   1.402   1_565  A
C1998      C1999   1.413       .  A
C1998      N2003   1.438       .  S
C1999      C2000   1.408       .  A
C1999      H2004   1.083       .  S
C2000      C2001   1.416   1_565  A
C2000      C2005   1.506       .  S
C2001      C2002   1.407       .  A
C2001      N2006   1.432       .  S
C2002      H2007   1.084       .  S
N2003      H2023   1.046       .  S
N2003      H2024   1.045       .  S
C2005      C2008   1.406       .  A
C2005      C2012   1.417       .  A
N2006      H2021   1.046       .  S
N2006      H2022   1.045       .  S
C2008      C2009   1.400       .  A
C2008      H2013   1.083       .  S
C2009      C2010   1.416       .  A
C2009      N2014   1.433   1_565  S
C2010      C2011   1.405       .  A
C2011      C2012   1.412       .  A
C2011      H2015   1.083       .  S
C2012      N2016   1.432       .  S
N2014      H2017   1.045       .  S
N2014      H2018   1.041   1_545  S
N2016      H2019   1.045       .  S
N2016      H2020   1.046       .  S
C2025      C2026   1.413       .  A
C2025      C2030   1.404       .  A
C2026      C2027   1.389       .  A
C2026      N2031   1.434       .  S
C2027      C2028   1.393       .  A
C2027      H2032   1.085       .  S
C2028      C2029   1.408       .  A
C2028      C2033   1.460       .  S
C2029      C2030   1.405       .  A
C2029      N2034   1.438       .  S
C2030      H2035   1.084       .  S
N2031      H2051   1.046       .  S
N2031      H2052   1.045       .  S
C2033      C2036   1.400       .  A
C2033      C2040   1.404       .  A
N2034      H2049   1.046       .  S
N2034      H2050   1.044       .  S
C2036      C2037   1.405       .  A
C2036      H2041   1.084       .  S
C2037      C2038   1.413       .  A
C2037      N2042   1.437       .  S
C2038      C2039   1.406       .  A
C2039      C2040   1.392       .  A
C2039      H2043   1.084       .  S
C2040      N2044   1.440       .  S
N2042      H2045   1.046       .  S
N2042      H2046   1.045       .  S
N2044      H2047   1.046       .  S
N2044      H2048   1.044       .  S
C2053      C2054   1.414       .  A
C2053      C2058   1.403       .  A
C2054      C2055   1.394       .  A
C2054      N2059   1.434       .  S
C2055      C2056   1.398       .  A
C2055      H2060   1.084       .  S
C2056      C2057   1.412       .  A
C2056      C2061   1.477       .  S
C2057      C2058   1.408       .  A
C2057      N2062   1.437       .  S
C2058      H2063   1.084       .  S
N2059      H2079   1.046       .  S
N2059      H2080   1.045       .  S
C2061      C2064   1.399       .  A
C2061      C2068   1.413       .  A
N2062      H2077   1.045       .  S
N2062      H2078   1.046       .  S
C2064      C2065   1.398       .  A
C2064      H2069   1.084       .  S
C2065      C2066   1.414       .  A
C2065      N2070   1.439       .  S
C2066      C2067   1.400       .  A
C2067      C2068   1.406       .  A
C2067      H2071   1.084       .  S
C2068      N2072   1.437       .  S
N2070      H2073   1.046       .  S
N2070      H2074   1.045       .  S
N2072      H2075   1.046       .  S
N2072      H2076   1.045       .  S
C2081      C2082   1.404       .  A
C2081      C2086   1.402       .  A
C2082      C2083   1.404       .  A
C2082      N2087   1.436       .  S
C2083      C2084   1.403       .  A
C2083      H2088   1.084       .  S
C2084      C2085   1.404       .  A
C2084      C2089   1.468       .  S
C2085      C2086   1.400       .  A
C2085      N2090   1.438       .  S
C2086      H2091   1.082       .  S
N2087      H2107   1.045       .  S
N2087      H2108   1.046       .  S
C2089      C2092   1.399       .  A
C2089      C2096   1.405       .  A
N2090      H2105   1.046       .  S
N2090      H2106   1.045       .  S
C2092      C2093   1.397       .  A
C2092      H2097   1.084       .  S
C2093      C2094   1.411       .  A
C2093      N2098   1.433       .  S
C2094      C2095   1.406       .  A
C2095      C2096   1.404       .  A
C2095      H2099   1.083       .  S
C2096      N2100   1.437       .  S
N2098      H2101   1.046       .  S
N2098      H2102   1.046       .  S
N2100      H2103   1.045       .  S
N2100      H2104   1.046       .  S
C2109      C2110   1.417       .  A
C2109      C2114   1.403       .  A
C2110      C2111   1.395       .  A
C2110      N2115   1.439       .  S
C2111      C2112   1.397       .  A
C2111      H2116   1.084       .  S
C2112      C2113   1.409       .  A
C2112      C2117   1.470       .  S
C2113      C2114   1.404       .  A
C2113      N2118   1.437       .  S
C2114      H2119   1.083       .  S
N2115      H2135   1.045       .  S
N2115      H2136   1.046       .  S
C2117      C2120   1.398       .  A
C2117      C2124   1.411       .  A
N2118      H2133   1.046       .  S
N2118      H2134   1.045       .  S
C2120      C2121   1.395       .  A
C2120      H2125   1.084       .  S
C2121      C2122   1.412       .  A
C2121      N2126   1.438       .  S
C2122      C2123   1.400       .  A
C2123      C2124   1.403       .  A
C2123      H2127   1.084       .  S
C2124      N2128   1.437       .  S
N2126      H2129   1.046       .  S
N2126      H2130   1.045       .  S
N2128      H2131   1.046       .  S
N2128      H2132   1.046       .  S
C2137      C2138   1.416       .  A
C2137      C2142   1.408       .  A
C2138      C2139   1.408       .  A
C2138      N2143   1.438       .  S
C2139      C2140   1.405       .  A
C2139      H2144   1.083       .  S
C2140      C2141   1.415       .  A
C2140      C2145   1.503       .  S
C2141      C2142   1.415       .  A
C2141      N2146   1.437       .  S
C2142      H2147   1.084       .  S
N2143      H2163   1.045       .  S
N2143      H2164   1.046       .  S
C2145      C2148   1.409       .  A
C2145      C2152   1.415       .  A
N2146      H2161   1.045       .  S
N2146      H2162   1.046       .  S
C2148      C2149   1.412       .  A
C2148      H2153   1.083       .  S
C2149      C2150   1.410       .  A
C2149      N2154   1.431       .  S
C2150      C2151   1.404       .  A
C2151      C2152   1.407       .  A
C2151      H2155   1.084       .  S
C2152      N2156   1.438       .  S
N2154      H2157   1.046       .  S
N2154      H2158   1.045       .  S
N2156      H2159   1.046       .  S
N2156      H2160   1.046       .  S
C2165      C2166   1.414       .  A
C2165      C2170   1.405       .  A
C2166      C2167   1.409       .  A
C2166      N2171   1.438       .  S
C2167      C2168   1.406       .  A
C2167      H2172   1.083       .  S
C2168      C2169   1.417       .  A
C2168      C2173   1.505       .  S
C2169      C2170   1.413       .  A
C2169      N2174   1.438       .  S
C2170      H2175   1.080       .  S
N2171      H2191   1.045       .  S
N2171      H2192   1.046       .  S
C2173      C2176   1.407       .  A
C2173      C2180   1.417       .  A
N2174      H2189   1.046       .  S
N2174      H2190   1.045       .  S
C2176      C2177   1.409       .  A
C2176      H2181   1.083       .  S
C2177      C2178   1.412       .  A
C2177      N2182   1.432       .  S
C2178      C2179   1.405       .  A
C2179      C2180   1.412       .  A
C2179      H2183   1.083       .  S
C2180      N2184   1.438       .  S
N2182      H2185   1.045       .  S
N2182      H2186   1.046       .  S
N2184      H2187   1.046       .  S
N2184      H2188   1.046       .  S
C2193      C2194   1.416       .  A
C2193      C2198   1.415       .  A
C2194      C2195   1.410       .  A
C2194      N2199   1.431       .  S
C2195      C2196   1.402       .  A
C2195      H2200   1.084       .  S
C2196      C2197   1.408       .  A
C2196      C2201   1.494       .  S
C2197      C2198   1.411       .  A
C2197      N2202   1.438       .  S
C2198      H2203   1.079       .  S
N2199      H2219   1.046       .  S
N2199      H2220   1.045       .  S
C2201      C2204   1.406       .  A
C2201      C2208   1.409       .  A
N2202      H2217   1.045       .  S
N2202      H2218   1.045       .  S
C2204      C2205   1.416       .  A
C2204      H2209   1.083       .  S
C2205      C2206   1.416       .  A
C2205      N2210   1.437       .  S
C2206      C2207   1.406       .  A
C2207      C2208   1.408       .  A
C2207      H2211   1.084       .  S
C2208      N2212   1.438       .  S
N2210      H2213   1.045       .  S
N2210      H2214   1.045       .  S
N2212      H2215   1.046       .  S
N2212      H2216   1.045       .  S
C2221      C2222   1.418       .  A
C2221      C2226   1.409       .  A
C2222      C2223   1.412       .  A
C2222      N2227   1.437       .  S
C2223      C2224   1.402       .  A
C2223      H2228   1.084       .  S
C2224      C2225   1.407       .  A
C2224      C2229   1.485       .  S
C2225      C2226   1.404       .  A
C2225      N2230   1.438       .  S
C2226      H2231   1.083       .  S
N2227      H2247   1.046       .  S
N2227      H2248   1.045       .  S
C2229      C2232   1.396       .  A
C2229      C2236   1.405       .  A
N2230      H2245   1.046       .  S
N2230      H2246   1.042       .  S
C2232      C2233   1.410       .  A
C2232      H2237   1.084       .  S
C2233      C2234   1.426       .  A
C2233      N2238   1.432       .  S
C2234      C2235   1.417       .  A
C2235      C2236   1.408       .  A
C2235      H2239   1.077       .  S
C2236      N2240   1.439       .  S
N2238      H2241   1.046       .  S
N2238      H2242   1.046       .  S
N2240      H2243   1.045       .  S
N2240      H2244   1.044       .  S
C2249      C2250   1.411       .  A
C2249      C2254   1.403       .  A
C2250      C2251   1.407       .  A
C2250      N2255   1.438       .  S
C2251      C2252   1.406       .  A
C2251      H2256   1.084       .  S
C2252      C2253   1.415       .  A
C2252      C2257   1.498       .  S
C2253      C2254   1.412       .  A
C2253      N2258   1.437       .  S
C2254      H2259   1.084       .  S
N2255      H2275   1.045       .  S
N2255      H2276   1.046       .  S
C2257      C2260   1.410       .  A
C2257      C2264   1.413       .  A
N2258      H2273   1.046       .  S
N2258      H2274   1.045       .  S
C2260      C2261   1.413       .  A
C2260      H2265   1.083       .  S
C2261      C2262   1.409       .  A
C2261      N2266   1.436       .  S
C2262      C2263   1.403       .  A
C2263      C2264   1.405       .  A
C2263      H2267   1.084       .  S
C2264      N2268   1.438       .  S
N2266      H2269   1.045       .  S
N2266      H2270   1.045       .  S
N2268      H2271   1.045       .  S
N2268      H2272   1.046       .  S
C2277      C2278   1.409       .  A
C2277      C2282   1.403       .  A
C2278      C2279   1.413       .  A
C2278      N2283   1.436       .  S
C2279      C2280   1.411       .  A
C2279      H2284   1.083       .  S
C2280      C2281   1.414       .  A
C2280      C2285   1.502       .  S
C2281      C2282   1.405       .  A
C2281      N2286   1.438       .  S
C2282      H2287   1.084       .  S
N2283      H2303   1.044       .  S
N2283      H2304   1.045       .  S
C2285      C2288   1.410       .  A
C2285      C2292   1.413       .  A
N2286      H2301   1.046       .  S
N2286      H2302   1.045       .  S
C2288      C2289   1.413       .  A
C2288      H2293   1.083       .  S
C2289      C2290   1.410       .  A
C2289      N2294   1.435       .  S
C2290      C2291   1.403       .  A
C2291      C2292   1.405       .  A
C2291      H2295   1.079       .  S
C2292      N2296   1.437       .  S
N2294      H2297   1.045       .  S
N2294      H2298   1.045       .  S
N2296      H2299   1.045       .  S
N2296      H2300   1.043       .  S
C2305      C2306   1.414       .  A
C2305      C2310   1.405       .  A
C2306      C2307   1.400       .  A
C2306      N2311   1.439       .  S
C2307      C2308   1.398       .  A
C2307      H2312   1.084       .  S
C2308      C2309   1.409       .  A
C2308      C2313   1.472       .  S
C2309      C2310   1.407       .  A
C2309      N2314   1.438       .  S
C2310      H2315   1.084       .  S
N2311      H2331   1.045       .  S
N2311      H2332   1.046       .  S
C2313      C2316   1.404       .  A
C2313      C2320   1.403       .  A
N2314      H2329   1.046       .  S
N2314      H2330   1.045       .  S
C2316      C2317   1.413       .  A
C2316      H2321   1.083       .  S
C2317      C2318   1.415       .  A
C2317      N2322   1.437       .  S
C2318      C2319   1.408       .  A
C2319      C2320   1.392       .  A
C2319      H2323   1.083       .  S
C2320      N2324   1.440       .  S
N2322      H2325   1.046       .  S
N2322      H2326   1.046       .  S
N2324      H2327   1.046       .  S
N2324      H2328   1.045       .  S
C2333      C2334   1.410       .  A
C2333      C2338   1.397       .  A
C2334      C2335   1.403       .  A
C2334      N2339   1.438       .  S
C2335      C2336   1.399       .  A
C2335      H2340   1.084       .  S
C2336      C2337   1.409       .  A
C2336      C2341   1.469       .  S
C2337      C2338   1.400       .  A
C2337      N2342   1.439       .  S
C2338      H2343   1.078       .  S
N2339      H2359   1.045       .  S
N2339      H2360   1.046       .  S
C2341      C2344   1.399       .  A
C2341      C2348   1.410       .  A
N2342      H2357   1.046       .  S
N2342      H2358   1.046       .  S
C2344      C2345   1.403       .  A
C2344      H2349   1.084       .  S
C2345      C2346   1.409       .  A
C2345      N2350   1.438       .  S
C2346      C2347   1.396       .  A
C2347      C2348   1.400       .  A
C2347      H2351   1.080       .  S
C2348      N2352   1.439       .  S
N2350      H2353   1.046       .  S
N2350      H2354   1.046       .  S
N2352      H2355   1.046       .  S
N2352      H2356   1.046       .  S
C2361      C2362   1.410       .  A
C2361      C2366   1.407       .  A
C2362      C2363   1.404       .  A
C2362      N2367   1.437       .  S
C2363      C2364   1.402       .  A
C2363      H2368   1.084       .  S
C2364      C2365   1.405       .  A
C2364      C2369   1.468       .  S
C2365      C2366   1.398       .  A
C2365      N2370   1.439       .  S
C2366      H2371   1.084       .  S
N2367      H2387   1.045       .  S
N2367      H2388   1.045       .  S
C2369      C2372   1.402       .  A
C2369      C2376   1.403       .  A
N2370      H2385   1.046       .  S
N2370      H2386   1.045       .  S
C2372      C2373   1.408       .  A
C2372      H2377   1.084       .  S
C2373      C2374   1.413       .  A
C2373      N2378   1.437       .  S
C2374      C2375   1.408       .  A
C2375      C2376   1.393       .  A
C2375      H2379   1.084       .  S
C2376      N2380   1.440       .  S
N2378      H2381   1.046       .  S
N2378      H2382   1.044       .  S
N2380      H2383   1.046       .  S
N2380      H2384   1.046       .  S
C2389      C2390   1.421       .  A
C2389      C2394   1.406       .  A
C2390      C2391   1.402       .  A
C2390      N2395   1.439   1_554  S
C2391      C2392   1.405       .  A
C2391      H2396   1.083       .  S
C2392      C2393   1.418       .  A
C2392      C2397   1.508       .  S
C2393      C2394   1.414       .  A
C2393      N2398   1.438       .  S
C2394      H2399   1.082       .  S
N2395      H2415   1.042       .  S
N2395      H2416   1.045   1_556  S
C2397      C2400   1.406       .  A
C2397      C2404   1.419   1_554  A
N2398      H2413   1.045       .  S
N2398      H2414   1.046       .  S
C2400      C2401   1.408       .  A
C2400      H2405   1.083       .  S
C2401      C2402   1.415       .  A
C2401      N2406   1.433       .  S
C2402      C2403   1.405   1_554  A
C2403      C2404   1.412       .  A
C2403      H2407   1.083       .  S
C2404      N2408   1.438       .  S
N2406      H2409   1.045       .  S
N2406      H2410   1.045       .  S
N2408      H2411   1.046       .  S
N2408      H2412   1.046       .  S
C2417      C2418   1.412   1_556  A
C2417      C2422   1.406       .  A
C2418      C2419   1.407   1_554  A
C2418      N2423   1.437       .  S
C2419      C2420   1.403       .  A
C2419      H2424   1.084   1_556  S
C2420      C2421   1.415       .  A
C2420      C2425   1.500       .  S
C2421      C2422   1.416       .  A
C2421      N2426   1.437       .  S
C2422      H2427   1.083       .  S
N2423      H2443   1.046       .  S
N2423      H2444   1.045       .  S
C2425      C2428   1.407       .  A
C2425      C2432   1.413   1_556  A
N2426      H2441   1.046       .  S
N2426      H2442   1.046       .  S
C2428      C2429   1.415       .  A
C2428      H2433   1.083       .  S
C2429      C2430   1.413       .  A
C2429      N2434   1.438       .  S
C2430      C2431   1.404   1_556  A
C2431      C2432   1.409       .  A
C2431      H2435   1.084       .  S
C2432      N2436   1.438       .  S
N2434      H2437   1.046       .  S
N2434      H2438   1.045       .  S
N2436      H2439   1.046       .  S
N2436      H2440   1.046       .  S
C2445      C2446   1.417       .  A
C2445      C2450   1.405       .  A
C2446      C2447   1.411       .  A
C2446      N2451   1.438       .  S
C2447      C2448   1.402       .  A
C2447      H2452   1.084       .  S
C2448      C2449   1.411       .  A
C2448      C2453   1.489       .  S
C2449      C2450   1.409       .  A
C2449      N2454   1.439       .  S
C2450      H2455   1.084       .  S
N2451      H2471   1.046       .  S
N2451      H2472   1.046       .  S
C2453      C2456   1.401       .  A
C2453      C2460   1.407       .  A
N2454      H2469   1.046       .  S
N2454      H2470   1.044       .  S
C2456      C2457   1.414       .  A
C2456      H2461   1.084       .  S
C2457      C2458   1.421       .  A
C2457      N2462   1.436       .  S
C2458      C2459   1.413       .  A
C2459      C2460   1.405       .  A
C2459      H2463   1.075       .  S
C2460      N2464   1.439       .  S
N2462      H2465   1.045       .  S
N2462      H2466   1.046       .  S
N2464      H2467   1.045       .  S
N2464      H2468   1.044       .  S
C2473      C2474   1.418       .  A
C2473      C2478   1.403       .  A
C2474      C2475   1.408       .  A
C2474      N2479   1.440       .  S
C2475      C2476   1.406       .  A
C2475      H2480   1.083       .  S
C2476      C2477   1.418       .  A
C2476      C2481   1.504       .  S
C2477      C2478   1.409       .  A
C2477      N2482   1.438       .  S
C2478      H2483   1.084       .  S
N2479      H2499   1.042       .  S
N2479      H2500   1.046       .  S
C2481      C2484   1.405       .  A
C2481      C2488   1.419       .  A
N2482      H2497   1.046       .  S
N2482      H2498   1.046       .  S
C2484      C2485   1.405       .  A
C2484      H2489   1.082       .  S
C2485      C2486   1.412       .  A
C2485      N2490   1.438       .  S
C2486      C2487   1.403       .  A
C2487      C2488   1.411       .  A
C2487      H2491   1.081       .  S
C2488      N2492   1.438       .  S
N2490      H2493   1.045       .  S
N2490      H2494   1.040       .  S
N2492      H2495   1.045       .  S
N2492      H2496   1.046       .  S
C2501      C2502   1.416       .  A
C2501      C2506   1.408       .  A
C2502      C2503   1.415       .  A
C2502      N2507   1.437       .  S
C2503      C2504   1.407       .  A
C2503      H2508   1.084       .  S
C2504      C2505   1.407       .  A
C2504      C2509   1.496       .  S
C2505      C2506   1.403       .  A
C2505      N2510   1.433       .  S
C2506      H2511   1.084       .  S
N2507      H2527   1.045       .  S
N2507      H2528   1.046       .  S
C2509      C2512   1.403       .  A
C2509      C2516   1.412       .  A
N2510      H2525   1.046       .  S
N2510      H2526   1.045       .  S
C2512      C2513   1.409       .  A
C2512      H2517   1.084       .  S
C2513      C2514   1.414       .  A
C2513      N2518   1.438       .  S
C2514      C2515   1.404       .  A
C2515      C2516   1.409       .  A
C2515      H2519   1.081       .  S
C2516      N2520   1.432       .  S
N2518      H2521   1.045       .  S
N2518      H2522   1.046       .  S
N2520      H2523   1.046       .  S
N2520      H2524   1.045       .  S
C2529      C2530   1.412       .  A
C2529      C2534   1.402       .  A
C2530      C2531   1.406       .  A
C2530      N2535   1.438       .  S
C2531      C2532   1.404       .  A
C2531      H2536   1.083       .  S
C2532      C2533   1.415       .  A
C2532      C2537   1.498       .  S
C2533      C2534   1.409       .  A
C2533      N2538   1.432       .  S
C2534      H2539   1.083       .  S
N2535      H2555   1.046       .  S
N2535      H2556   1.045       .  S
C2537      C2540   1.409       .  A
C2537      C2544   1.408       .  A
N2538      H2553   1.046       .  S
N2538      H2554   1.046       .  S
C2540      C2541   1.414       .  A
C2540      H2545   1.083       .  S
C2541      C2542   1.412       .  A
C2541      N2546   1.434       .  S
C2542      C2543   1.410       .  A
C2543      C2544   1.403       .  A
C2543      H2547   1.084       .  S
C2544      N2548   1.433       .  S
N2546      H2549   1.043       .  S
N2546      H2550   1.045       .  S
N2548      H2551   1.045       .  S
N2548      H2552   1.046       .  S
C2557      C2558   1.412       .  A
C2557      C2562   1.403       .  A
C2558      C2559   1.408       .  A
C2558      N2563   1.438       .  S
C2559      C2560   1.404       .  A
C2559      H2564   1.083       .  S
C2560      C2561   1.417       .  A
C2560      C2565   1.500       .  S
C2561      C2562   1.413       .  A
C2561      N2566   1.437       .  S
C2562      H2567   1.083       .  S
N2563      H2583   1.045       .  S
N2563      H2584   1.046       .  S
C2565      C2568   1.403       .  A
C2565      C2572   1.416       .  A
N2566      H2581   1.046       .  S
N2566      H2582   1.046       .  S
C2568      C2569   1.408       .  A
C2568      H2573   1.084       .  S
C2569      C2570   1.417       .  A
C2569      N2574   1.438       .  S
C2570      C2571   1.404       .  A
C2571      C2572   1.414       .  A
C2571      H2575   1.084       .  S
C2572      N2576   1.437       .  S
N2574      H2577   1.046       .  S
N2574      H2578   1.045       .  S
N2576      H2579   1.046       .  S
N2576      H2580   1.046       .  S
C2585      C2586   1.419       .  A
C2585      C2590   1.407       .  A
C2586      C2587   1.413       .  A
C2586      N2591   1.438       .  S
C2587      C2588   1.406       .  A
C2587      H2592   1.083       .  S
C2588      C2589   1.415       .  A
C2588      C2593   1.506       .  S
C2589      C2590   1.413       .  A
C2589      N2594   1.437       .  S
C2590      H2595   1.083       .  S
N2591      H2611   1.046       .  S
N2591      H2612   1.046       .  S
C2593      C2596   1.406       .  A
C2593      C2600   1.414       .  A
N2594      H2609   1.046       .  S
N2594      H2610   1.046       .  S
C2596      C2597   1.411       .  A
C2596      H2601   1.083       .  S
C2597      C2598   1.414       .  A
C2597      N2602   1.438       .  S
C2598      C2599   1.407       .  A
C2599      C2600   1.414       .  A
C2599      H2603   1.078       .  S
C2600      N2604   1.437       .  S
N2602      H2605   1.046       .  S
N2602      H2606   1.043       .  S
N2604      H2607   1.046       .  S
N2604      H2608   1.046       .  S
C2613      C2614   1.408       .  A
C2613      C2618   1.397       .  A
C2614      C2615   1.399       .  A
C2614      N2619   1.437       .  S
C2615      C2616   1.398       .  A
C2615      H2620   1.084       .  S
C2616      C2617   1.411       .  A
C2616      C2621   1.468       .  S
C2617      C2618   1.403       .  A
C2617      N2622   1.438       .  S
C2618      H2623   1.082       .  S
N2619      H2639   1.045       .  S
N2619      H2640   1.046       .  S
C2621      C2624   1.399       .  A
C2621      C2628   1.408       .  A
N2622      H2637   1.046       .  S
N2622      H2638   1.046       .  S
C2624      C2625   1.404       .  A
C2624      H2629   1.084       .  S
C2625      C2626   1.411       .  A
C2625      N2630   1.438       .  S
C2626      C2627   1.400       .  A
C2627      C2628   1.398       .  A
C2627      H2631   1.083       .  S
C2628      N2632   1.439       .  S
N2630      H2633   1.046       .  S
N2630      H2634   1.045       .  S
N2632      H2635   1.046       .  S
N2632      H2636   1.046       .  S
C2641      C2642   1.418       .  A
C2641      C2646   1.406       .  A
C2642      C2643   1.396       .  A
C2642      N2647   1.439       .  S
C2643      C2644   1.397       .  A
C2643      H2648   1.085       .  S
C2644      C2645   1.403       .  A
C2644      C2649   1.466       .  S
C2645      C2646   1.402       .  A
C2645      N2650   1.437       .  S
C2646      H2651   1.083       .  S
N2647      H2667   1.042       .  S
N2647      H2668   1.046       .  S
C2649      C2652   1.403       .  A
C2649      C2656   1.405       .  A
N2650      H2665   1.045       .  S
N2650      H2666   1.045       .  S
C2652      C2653   1.404       .  A
C2652      H2657   1.084       .  S
C2653      C2654   1.406       .  A
C2653      N2658   1.437       .  S
C2654      C2655   1.402       .  A
C2655      C2656   1.394       .  A
C2655      H2659   1.085       .  S
C2656      N2660   1.438       .  S
N2658      H2661   1.046       .  S
N2658      H2662   1.045       .  S
N2660      H2663   1.046       .  S
N2660      H2664   1.045       .  S
C2669      C2670   1.406       .  A
C2669      C2674   1.402       .  A
C2670      C2671   1.405       .  A
C2670      N2675   1.437       .  S
C2671      C2672   1.406       .  A
C2671      H2676   1.084       .  S
C2672      C2673   1.408       .  A
C2672      C2677   1.473       .  S
C2673      C2674   1.397       .  A
C2673      N2678   1.439       .  S
C2674      H2679   1.085       .  S
N2675      H2695   1.045       .  S
N2675      H2696   1.046       .  S
C2677      C2680   1.403       .  A
C2677      C2684   1.407       .  A
N2678      H2693   1.046       .  S
N2678      H2694   1.045       .  S
C2680      C2681   1.400       .  A
C2680      H2685   1.084       .  S
C2681      C2682   1.416       .  A
C2681      N2686   1.432       .  S
C2682      C2683   1.407       .  A
C2683      C2684   1.396       .  A
C2683      H2687   1.084       .  S
C2684      N2688   1.439       .  S
N2686      H2689   1.045       .  S
N2686      H2690   1.045       .  S
N2688      H2691   1.046       .  S
N2688      H2692   1.045       .  S
C2697      C2698   1.417       .  A
C2697      C2702   1.403   1_655  A
C2698      C2699   1.414       .  A
C2698      N2703   1.438       .  S
C2699      C2700   1.407       .  A
C2699      H2704   1.083       .  S
C2700      C2701   1.417   1_655  A
C2700      C2705   1.505       .  S
C2701      C2702   1.408       .  A
C2701      N2706   1.438       .  S
C2702      H2707   1.083       .  S
N2703      H2723   1.044       .  S
N2703      H2724   1.046       .  S
C2705      C2708   1.405       .  A
C2705      C2712   1.419       .  A
N2706      H2721   1.046       .  S
N2706      H2722   1.045       .  S
C2708      C2709   1.402       .  A
C2708      H2713   1.084       .  S
C2709      C2710   1.411       .  A
C2709      N2714   1.433       .  S
C2710      C2711   1.405       .  A
C2711      C2712   1.416       .  A
C2711      H2715   1.083       .  S
C2712      N2716   1.437       .  S
N2714      H2717   1.046   1_655  S
N2714      H2718   1.045       .  S
N2716      H2719   1.046       .  S
N2716      H2720   1.045       .  S
C2725      C2726   1.415       .  A
C2725      C2730   1.403       .  A
C2726      C2727   1.408       .  A
C2726      N2731   1.438       .  S
C2727      C2728   1.409       .  A
C2727      H2732   1.083       .  S
C2728      C2729   1.412       .  A
C2728      C2733   1.499       .  S
C2729      C2730   1.406       .  A
C2729      N2734   1.438       .  S
C2730      H2735   1.084       .  S
N2731      H2751   1.043       .  S
N2731      H2752   1.046       .  S
C2733      C2736   1.409       .  A
C2733      C2740   1.411       .  A
N2734      H2749   1.046       .  S
N2734      H2750   1.046       .  S
C2736      C2737   1.414       .  A
C2736      H2741   1.083       .  S
C2737      C2738   1.414       .  A
C2737      N2742   1.437       .  S
C2738      C2739   1.405       .  A
C2739      C2740   1.406       .  A
C2739      H2743   1.080       .  S
C2740      N2744   1.438       .  S
N2742      H2745   1.046       .  S
N2742      H2746   1.045       .  S
N2744      H2747   1.045       .  S
N2744      H2748   1.046       .  S
C2753      C2754   1.414       .  A
C2753      C2758   1.403       .  A
C2754      C2755   1.408       .  A
C2754      N2759   1.439       .  S
C2755      C2756   1.404       .  A
C2755      H2760   1.084       .  S
C2756      C2757   1.414       .  A
C2756      C2761   1.499       .  S
C2757      C2758   1.412       .  A
C2757      N2762   1.431       .  S
C2758      H2763   1.083       .  S
N2759      H2779   1.044       .  S
N2759      H2780   1.045       .  S
C2761      C2764   1.404       .  A
C2761      C2768   1.412       .  A
N2762      H2777   1.045       .  S
N2762      H2778   1.046       .  S
C2764      C2765   1.409       .  A
C2764      H2769   1.084       .  S
C2765      C2766   1.413       .  A
C2765      N2770   1.438       .  S
C2766      C2767   1.405       .  A
C2767      C2768   1.413       .  A
C2767      H2771   1.084       .  S
C2768      N2772   1.431       .  S
N2770      H2773   1.045       .  S
N2770      H2774   1.045       .  S
N2772      H2775   1.045       .  S
N2772      H2776   1.045       .  S
C2781      C2782   1.410       .  A
C2781      C2786   1.396       .  A
C2782      C2783   1.403       .  A
C2782      N2787   1.438       .  S
C2783      C2784   1.400       .  A
C2783      H2788   1.084       .  S
C2784      C2785   1.411       .  A
C2784      C2789   1.470       .  S
C2785      C2786   1.396       .  A
C2785      N2790   1.439       .  S
C2786      H2791   1.082       .  S
N2787      H2807   1.045       .  S
N2787      H2808   1.046       .  S
C2789      C2792   1.398       .  A
C2789      C2796   1.408       .  A
N2790      H2805   1.046       .  S
N2790      H2806   1.045       .  S
C2792      C2793   1.391       .  A
C2792      H2797   1.085       .  S
C2793      C2794   1.409       .  A
C2793      N2798   1.432       .  S
C2794      C2795   1.405       .  A
C2795      C2796   1.406       .  A
C2795      H2799   1.084       .  S
C2796      N2800   1.437       .  S
N2798      H2801   1.045       .  S
N2798      H2802   1.046       .  S
N2800      H2803   1.046       .  S
N2800      H2804   1.045       .  S
C2809      C2810   1.412       .  A
C2809      C2814   1.398       .  A
C2810      C2811   1.405       .  A
C2810      N2815   1.438       .  S
C2811      C2812   1.402       .  A
C2811      H2816   1.083       .  S
C2812      C2813   1.411       .  A
C2812      C2817   1.479       .  S
C2813      C2814   1.396       .  A
C2813      N2818   1.438       .  S
C2814      H2819   1.082       .  S
N2815      H2835   1.046       .  S
N2815      H2836   1.046       .  S
C2817      C2820   1.401       .  A
C2817      C2824   1.410       .  A
N2818      H2833   1.046       .  S
N2818      H2834   1.045       .  S
C2820      C2821   1.393       .  A
C2820      H2825   1.084       .  S
C2821      C2822   1.408       .  A
C2821      N2826   1.432       .  S
C2822      C2823   1.405       .  A
C2823      C2824   1.408       .  A
C2823      H2827   1.084       .  S
C2824      N2828   1.437       .  S
N2826      H2829   1.046       .  S
N2826      H2830   1.045       .  S
N2828      H2831   1.046       .  S
N2828      H2832   1.046       .  S
C2837      C2838   1.411       .  A
C2837      C2842   1.404       .  A
C2838      C2839   1.403       .  A
C2838      N2843   1.432       .  S
C2839      C2840   1.404       .  A
C2839      H2844   1.084       .  S
C2840      C2841   1.418       .  A
C2840      C2845   1.499       .  S
C2841      C2842   1.412       .  A
C2841      N2846   1.438       .  S
C2842      H2847   1.084       .  S
N2843      H2863   1.045       .  S
N2843      H2864   1.046       .  S
C2845      C2848   1.404       .  A
C2845      C2852   1.417       .  A
N2846      H2861   1.046       .  S
N2846      H2862   1.045       .  S
C2848      C2849   1.406       .  A
C2848      H2853   1.083       .  S
C2849      C2850   1.413       .  A
C2849      N2854   1.437   1_655  S
C2850      C2851   1.403       .  A
C2851      C2852   1.410       .  A
C2851      H2855   1.083       .  S
C2852      N2856   1.438       .  S
N2854      H2857   1.046       .  S
N2854      H2858   1.045       .  S
N2856      H2859   1.046       .  S
N2856      H2860   1.046       .  S
C2865      C2866   1.416       .  A
C2865      C2870   1.404       .  A
C2866      C2867   1.408       .  A
C2866      N2871   1.433       .  S
C2867      C2868   1.405       .  A
C2867      H2872   1.084       .  S
C2868      C2869   1.414       .  A
C2868      C2873   1.503       .  S
C2869      C2870   1.410       .  A
C2869      N2874   1.432       .  S
C2870      H2875   1.084       .  S
N2871      H2891   1.046       .  S
N2871      H2892   1.046       .  S
C2873      C2876   1.410       .  A
C2873      C2880   1.414       .  A
N2874      H2889   1.046       .  S
N2874      H2890   1.046       .  S
C2876      C2877   1.414       .  A
C2876      H2881   1.083       .  S
C2877      C2878   1.410       .  A
C2877      N2882   1.436       .  S
C2878      C2879   1.403       .  A
C2879      C2880   1.408       .  A
C2879      H2883   1.084       .  S
C2880      N2884   1.437       .  S
N2882      H2885   1.045       .  S
N2882      H2886   1.044       .  S
N2884      H2887   1.046       .  S
N2884      H2888   1.046       .  S
C2893      C2894   1.407       .  A
C2893      C2898   1.404       .  A
C2894      C2895   1.400       .  A
C2894      N2899   1.432       .  S
C2895      C2896   1.403       .  A
C2895      H2900   1.083       .  S
C2896      C2897   1.417       .  A
C2896      C2901   1.494       .  S
C2897      C2898   1.412       .  A
C2897      N2902   1.437       .  S
C2898      H2903   1.083       .  S
N2899      H2919   1.045       .  S
N2899      H2920   1.046       .  S
C2901      C2904   1.404       .  A
C2901      C2908   1.415       .  A
N2902      H2917   1.046       .  S
N2902      H2918   1.046       .  S
C2904      C2905   1.407       .  A
C2904      H2909   1.084       .  S
C2905      C2906   1.413       .  A
C2905      N2910   1.437       .  S
C2906      C2907   1.400       .  A
C2907      C2908   1.408       .  A
C2907      H2911   1.082       .  S
C2908      N2912   1.438       .  S
N2910      H2913   1.046       .  S
N2910      H2914   1.045       .  S
N2912      H2915   1.046       .  S
N2912      H2916   1.046       .  S
C2921      C2922   1.412       .  A
C2921      C2926   1.407       .  A
C2922      C2923   1.407       .  A
C2922      N2927   1.438       .  S
C2923      C2924   1.404       .  A
C2923      H2928   1.084       .  S
C2924      C2925   1.413       .  A
C2924      C2929   1.497       .  S
C2925      C2926   1.414       .  A
C2925      N2930   1.437       .  S
C2926      H2931   1.084       .  S
N2927      H2947   1.045       .  S
N2927      H2948   1.046       .  S
C2929      C2932   1.408       .  A
C2929      C2936   1.412       .  A
N2930      H2945   1.046       .  S
N2930      H2946   1.046       .  S
C2932      C2933   1.412       .  A
C2932      H2937   1.083       .  S
C2933      C2934   1.411       .  A
C2933      N2938   1.431       .  S
C2934      C2935   1.405       .  A
C2935      C2936   1.406       .  A
C2935      H2939   1.084       .  S
C2936      N2940   1.438       .  S
N2938      H2941   1.045       .  S
N2938      H2942   1.046       .  S
N2940      H2943   1.046       .  S
N2940      H2944   1.046       .  S
C2949      C2950   1.419       .  A
C2949      C2954   1.404       .  A
C2950      C2951   1.402       .  A
C2950      N2955   1.434       .  S
C2951      C2952   1.399       .  A
C2951      H2956   1.084       .  S
C2952      C2953   1.416       .  A
C2952      C2957   1.494       .  S
C2953      C2954   1.414       .  A
C2953      N2958   1.437       .  S
C2954      H2959   1.083       .  S
N2955      H2975   1.046       .  S
N2955      H2976   1.045       .  S
C2957      C2960   1.402       .  A
C2957      C2964   1.416       .  A
N2958      H2973   1.045       .  S
N2958      H2974   1.046       .  S
C2960      C2961   1.404       .  A
C2960      H2965   1.084       .  S
C2961      C2962   1.411       .  A
C2961      N2966   1.438       .  S
C2962      C2963   1.404       .  A
C2963      C2964   1.413       .  A
C2963      H2967   1.083       .  S
C2964      N2968   1.437       .  S
N2966      H2969   1.045       .  S
N2966      H2970   1.045       .  S
N2968      H2971   1.046       .  S
N2968      H2972   1.046       .  S
C2977      C2978   1.415       .  A
C2977      C2982   1.406       .  A
C2978      C2979   1.412       .  A
C2978      N2983   1.438       .  S
C2979      C2980   1.407       .  A
C2979      H2984   1.083       .  S
C2980      C2981   1.419       .  A
C2980      C2985   1.512       .  S
C2981      C2982   1.413       .  A
C2981      N2986   1.438       .  S
C2982      H2987   1.083       .  S
N2983      H3003   1.046       .  S
N2983      H3004   1.046       .  S
C2985      C2988   1.403       .  A
C2985      C2992   1.418       .  A
N2986      H3001   1.046       .  S
N2986      H3002   1.046       .  S
C2988      C2989   1.408       .  A
C2988      H2993   1.083       .  S
C2989      C2990   1.422       .  A
C2989      N2994   1.438       .  S
C2990      C2991   1.409       .  A
C2991      C2992   1.419       .  A
C2991      H2995   1.083       .  S
C2992      N2996   1.437       .  S
N2994      H2997   1.045       .  S
N2994      H2998   1.046       .  S
N2996      H2999   1.046       .  S
N2996      H3000   1.045       .  S
C3005      C3006   1.416       .  A
C3005      C3010   1.406       .  A
C3006      C3007   1.408       .  A
C3006      N3011   1.438       .  S
C3007      C3008   1.404       .  A
C3007      H3012   1.083       .  S
C3008      C3009   1.416       .  A
C3008      C3013   1.502       .  S
C3009      C3010   1.412       .  A
C3009      N3014   1.437       .  S
C3010      H3015   1.083       .  S
N3011      H3031   1.045       .  S
N3011      H3032   1.046       .  S
C3013      C3016   1.405       .  A
C3013      C3020   1.416       .  A
N3014      H3029   1.046       .  S
N3014      H3030   1.046       .  S
C3016      C3017   1.411       .  A
C3016      H3021   1.083       .  S
C3017      C3018   1.415       .  A
C3017      N3022   1.437       .  S
C3018      C3019   1.405       .  A
C3019      C3020   1.411       .  A
C3019      H3023   1.084       .  S
C3020      N3024   1.438       .  S
N3022      H3025   1.045       .  S
N3022      H3026   1.045       .  S
N3024      H3027   1.045       .  S
N3024      H3028   1.046       .  S
C3033      C3034   1.414       .  A
C3033      C3038   1.407       .  A
C3034      C3035   1.413       .  A
C3034      N3039   1.432       .  S
C3035      C3036   1.409       .  A
C3035      H3040   1.083       .  S
C3036      C3037   1.413       .  A
C3036      C3041   1.506       .  S
C3037      C3038   1.411       .  A
C3037      N3042   1.437       .  S
C3038      H3043   1.084       .  S
N3039      H3059   1.045       .  S
N3039      H3060   1.044       .  S
C3041      C3044   1.409       .  A
C3041      C3048   1.412       .  A
N3042      H3057   1.045       .  S
N3042      H3058   1.046       .  S
C3044      C3045   1.415       .  A
C3044      H3049   1.083       .  S
C3045      C3046   1.412       .  A
C3045      N3050   1.431       .  S
C3046      C3047   1.411       .  A
C3047      C3048   1.412       .  A
C3047      H3051   1.083       .  S
C3048      N3052   1.438       .  S
N3050      H3053   1.046       .  S
N3050      H3054   1.045       .  S
N3052      H3055   1.046       .  S
N3052      H3056   1.046       .  S
C3061      C3062   1.411       .  A
C3061      C3066   1.399       .  A
C3062      C3063   1.408       .  A
C3062      N3067   1.438       .  S
C3063      C3064   1.402       .  A
C3063      H3068   1.084       .  S
C3064      C3065   1.409       .  A
C3064      C3069   1.479       .  S
C3065      C3066   1.402       .  A
C3065      N3070   1.438       .  S
C3066      H3071   1.078       .  S
N3067      H3087   1.045       .  S
N3067      H3088   1.045       .  S
C3069      C3072   1.399       .  A
C3069      C3076   1.409       .  A
N3070      H3085   1.046       .  S
N3070      H3086   1.046       .  S
C3072      C3073   1.397       .  A
C3072      H3077   1.084       .  S
C3073      C3074   1.412       .  A
C3073      N3078   1.433       .  S
C3074      C3075   1.407       .  A
C3075      C3076   1.411       .  A
C3075      H3079   1.083       .  S
C3076      N3080   1.437       .  S
N3078      H3081   1.046       .  S
N3078      H3082   1.045       .  S
N3080      H3083   1.046       .  S
N3080      H3084   1.046       .  S
C3089      C3090   1.404       .  A
C3089      C3094   1.399       .  A
C3090      C3091   1.404       .  A
C3090      N3095   1.435       .  S
C3091      C3092   1.403       .  A
C3091      H3096   1.084       .  S
C3092      C3093   1.403       .  A
C3092      C3097   1.463       .  S
C3093      C3094   1.396       .  A
C3093      N3098   1.438       .  S
C3094      H3099   1.083       .  S
N3095      H3115   1.046       .  S
N3095      H3116   1.046       .  S
C3097      C3100   1.399       .  A
C3097      C3104   1.403       .  A
N3098      H3113   1.046       .  S
N3098      H3114   1.045       .  S
C3100      C3101   1.394       .  A
C3100      H3105   1.084       .  S
C3101      C3102   1.407       .  A
C3101      N3106   1.433       .  S
C3102      C3103   1.407       .  A
C3103      C3104   1.403       .  A
C3103      H3107   1.084   1_556  S
C3104      N3108   1.437   1_556  S
N3106      H3109   1.045       .  S
N3106      H3110   1.045       .  S
N3108      H3111   1.046       .  S
N3108      H3112   1.045   1_554  S
C3117      C3118   1.411       .  A
C3117      C3122   1.400       .  A
C3118      C3119   1.407       .  A
C3118      N3123   1.437       .  S
C3119      C3120   1.403       .  A
C3119      H3124   1.083       .  S
C3120      C3121   1.412       .  A
C3120      C3125   1.484       .  S
C3121      C3122   1.399       .  A
C3121      N3126   1.439       .  S
C3122      H3127   1.081       .  S
N3123      H3143   1.045       .  S
N3123      H3144   1.046       .  S
C3125      C3128   1.402       .  A
C3125      C3132   1.412       .  A
N3126      H3141   1.046       .  S
N3126      H3142   1.046       .  S
C3128      C3129   1.395       .  A
C3128      H3133   1.084       .  S
C3129      C3130   1.408       .  A
C3129      N3134   1.432       .  S
C3130      C3131   1.406       .  A
C3131      C3132   1.410       .  A
C3131      H3135   1.083       .  S
C3132      N3136   1.437       .  S
N3134      H3137   1.046       .  S
N3134      H3138   1.046       .  S
N3136      H3139   1.046       .  S
N3136      H3140   1.045       .  S
C3145      C3146   1.416       .  A
C3145      C3150   1.404       .  A
C3146      C3147   1.412       .  A
C3146      N3151   1.438       .  S
C3147      C3148   1.406       .  A
C3147      H3152   1.083       .  S
C3148      C3149   1.418       .  A
C3148      C3153   1.507       .  S
C3149      C3150   1.413       .  A
C3149      N3154   1.438       .  S
C3150      H3155   1.084       .  S
N3151      H3171   1.045       .  S
N3151      H3172   1.045       .  S
C3153      C3156   1.404       .  A
C3153      C3160   1.417       .  A
N3154      H3169   1.046       .  S
N3154      H3170   1.045       .  S
C3156      C3157   1.405       .  A
C3156      H3161   1.083       .  S
C3157      C3158   1.421       .  A
C3157      N3162   1.440   1_556  S
C3158      C3159   1.406       .  A
C3159      C3160   1.415       .  A
C3159      H3163   1.083       .  S
C3160      N3164   1.437       .  S
N3162      H3165   1.046       .  S
N3162      H3166   1.042       .  S
N3164      H3167   1.045       .  S
N3164      H3168   1.046       .  S
C3173      C3174   1.414       .  A
C3173      C3178   1.405       .  A
C3174      C3175   1.407       .  A
C3174      N3179   1.436       .  S
C3175      C3176   1.402       .  A
C3175      H3180   1.084       .  S
C3176      C3177   1.414       .  A
C3176      C3181   1.497       .  S
C3177      C3178   1.414       .  A
C3177      N3182   1.437       .  S
C3178      H3183   1.084       .  S
N3179      H3199   1.045       .  S
N3179      H3200   1.046       .  S
C3181      C3184   1.404       .  A
C3181      C3188   1.423       .  A
N3182      H3197   1.046       .  S
N3182      H3198   1.046       .  S
C3184      C3185   1.408       .  A
C3184      H3189   1.084       .  S
C3185      C3186   1.413       .  A
C3185      N3190   1.439       .  S
C3186      C3187   1.401       .  A
C3187      C3188   1.408       .  A
C3187      H3191   1.084       .  S
C3188      N3192   1.438       .  S
N3190      H3193   1.045       .  S
N3190      H3194   1.044       .  S
N3192      H3195   1.046       .  S
N3192      H3196   1.043       .  S
C3201      C3202   1.415       .  A
C3201      C3206   1.405       .  A
C3202      C3203   1.404       .  A
C3202      N3207   1.433       .  S
C3203      C3204   1.402       .  A
C3203      H3208   1.084       .  S
C3204      C3205   1.417       .  A
C3204      C3209   1.498       .  S
C3205      C3206   1.414       .  A
C3205      N3210   1.437       .  S
C3206      H3211   1.084       .  S
N3207      H3227   1.046       .  S
N3207      H3228   1.046       .  S
C3209      C3212   1.410       .  A
C3209      C3216   1.410       .  A
N3210      H3225   1.045       .  S
N3210      H3226   1.046       .  S
C3212      C3213   1.414       .  A
C3212      H3217   1.083       .  S
C3213      C3214   1.409       .  A
C3213      N3218   1.436       .  S
C3214      C3215   1.402       .  A
C3215      C3216   1.402       .  A
C3215      H3219   1.084       .  S
C3216      N3220   1.432       .  S
N3218      H3221   1.046       .  S
N3218      H3222   1.045       .  S
N3220      H3223   1.046       .  S
N3220      H3224   1.046   1_556  S
C3229      C3230   1.409       .  A
C3229      C3234   1.405       .  A
C3230      C3231   1.414       .  A
C3230      N3235   1.431       .  S
C3231      C3232   1.411       .  A
C3231      H3236   1.083       .  S
C3232      C3233   1.413       .  A
C3232      C3237   1.505       .  S
C3233      C3234   1.409       .  A
C3233      N3238   1.438       .  S
C3234      H3239   1.084       .  S
N3235      H3255   1.046       .  S
N3235      H3256   1.045       .  S
C3237      C3240   1.409       .  A
C3237      C3244   1.412       .  A
N3238      H3253   1.046       .  S
N3238      H3254   1.046       .  S
C3240      C3241   1.415       .  A
C3240      H3245   1.083       .  S
C3241      C3242   1.415       .  A
C3241      N3246   1.437       .  S
C3242      C3243   1.410       .  A
C3243      C3244   1.412       .  A
C3243      H3247   1.083       .  S
C3244      N3248   1.438       .  S
N3246      H3249   1.046       .  S
N3246      H3250   1.045       .  S
N3248      H3251   1.046       .  S
N3248      H3252   1.046       .  S
C3257      C3258   1.413       .  A
C3257      C3262   1.404       .  A
C3258      C3259   1.416       .  A
C3258      N3263   1.436       .  S
C3259      C3260   1.411       .  A
C3259      H3264   1.083       .  S
C3260      C3261   1.412       .  A
C3260      C3265   1.504       .  S
C3261      C3262   1.404       .  A
C3261      N3266   1.438       .  S
C3262      H3267   1.082       .  S
N3263      H3283   1.045       .  S
N3263      H3284   1.045       .  S
C3265      C3268   1.407       .  A
C3265      C3272   1.414       .  A
N3266      H3281   1.046       .  S
N3266      H3282   1.046       .  S
C3268      C3269   1.408       .  A
C3268      H3273   1.083       .  S
C3269      C3270   1.415       .  A
C3269      N3274   1.438       .  S
C3270      C3271   1.409       .  A
C3271      C3272   1.414       .  A
C3271      H3275   1.083       .  S
C3272      N3276   1.437       .  S
N3274      H3277   1.046       .  S
N3274      H3278   1.045       .  S
N3276      H3279   1.046       .  S
N3276      H3280   1.046       .  S
C3285      C3286   1.417       .  A
C3285      C3290   1.410       .  A
C3286      C3287   1.416       .  A
C3286      N3291   1.437       .  S
C3287      C3288   1.408       .  A
C3287      H3292   1.083       .  S
C3288      C3289   1.409       .  A
C3288      C3293   1.498       .  S
C3289      C3290   1.407       .  A
C3289      N3294   1.438       .  S
C3290      H3295   1.083       .  S
N3291      H3311   1.045       .  S
N3291      H3312   1.045       .  S
C3293      C3296   1.407       .  A
C3293      C3300   1.411       .  A
N3294      H3309   1.045       .  S
N3294      H3310   1.046       .  S
C3296      C3297   1.410       .  A
C3296      H3301   1.084       .  S
C3297      C3298   1.413       .  A
C3297      N3302   1.431       .  S
C3298      C3299   1.407       .  A
C3299      C3300   1.410       .  A
C3299      H3303   1.084       .  S
C3300      N3304   1.438       .  S
N3302      H3305   1.046       .  S
N3302      H3306   1.045       .  S
N3304      H3307   1.045       .  S
N3304      H3308   1.046       .  S
C3313      C3314   1.406       .  A
C3313      C3318   1.401       .  A
C3314      C3315   1.407       .  A
C3314      N3319   1.437       .  S
C3315      C3316   1.404       .  A
C3315      H3320   1.084       .  S
C3316      C3317   1.406       .  A
C3316      C3321   1.470       .  S
C3317      C3318   1.396       .  A
C3317      N3322   1.438       .  S
C3318      H3323   1.082       .  S
N3319      H3339   1.045       .  S
N3319      H3340   1.045       .  S
C3321      C3324   1.397       .  A
C3321      C3328   1.407       .  A
N3322      H3337   1.046       .  S
N3322      H3338   1.045       .  S
C3324      C3325   1.393       .  A
C3324      H3329   1.085       .  S
C3325      C3326   1.412       .  A
C3325      N3330   1.433       .  S
C3326      C3327   1.406       .  A
C3327      C3328   1.407       .  A
C3327      H3331   1.083       .  S
C3328      N3332   1.437       .  S
N3330      H3333   1.045       .  S
N3330      H3334   1.046       .  S
N3332      H3335   1.046       .  S
N3332      H3336   1.045       .  S
C3341      C3342   1.416       .  A
C3341      C3346   1.402       .  A
C3342      C3343   1.407       .  A
C3342      N3347   1.438       .  S
C3343      C3344   1.399       .  A
C3343      H3348   1.084       .  S
C3344      C3345   1.407       .  A
C3344      C3349   1.471       .  S
C3345      C3346   1.398       .  A
C3345      N3350   1.439       .  S
C3346      H3351   1.082       .  S
N3347      H3367   1.045       .  S
N3347      H3368   1.046       .  S
C3349      C3352   1.398       .  A
C3349      C3356   1.411       .  A
N3350      H3365   1.046       .  S
N3350      H3366   1.045       .  S
C3352      C3353   1.400       .  A
C3352      H3357   1.084       .  S
C3353      C3354   1.409       .  A
C3353      N3358   1.437       .  S
C3354      C3355   1.400       .  A
C3355      C3356   1.406       .  A
C3355      H3359   1.082       .  S
C3356      N3360   1.438       .  S
N3358      H3361   1.046       .  S
N3358      H3362   1.045       .  S
N3360      H3363   1.046       .  S
N3360      H3364   1.045       .  S
C3369      C3370   1.406       .  A
C3369      C3374   1.405       .  A
C3370      C3371   1.392       .  A
C3370      N3375   1.431       .  S
C3371      C3372   1.400       .  A
C3371      H3376   1.084       .  S
C3372      C3373   1.410       .  A
C3372      C3377   1.477       .  S
C3373      C3374   1.407       .  A
C3373      N3378   1.437       .  S
C3374      H3379   1.084       .  S
N3375      H3395   1.045       .  S
N3375      H3396   1.046       .  S
C3377      C3380   1.401       .  A
C3377      C3384   1.411       .  A
N3378      H3393   1.046       .  S
N3378      H3394   1.046       .  S
C3380      C3381   1.403       .  A
C3380      H3385   1.083       .  S
C3381      C3382   1.413       .  A
C3381      N3386   1.438       .  S
C3382      C3383   1.400       .  A
C3383      C3384   1.398       .  A
C3383      H3387   1.083       .  S
C3384      N3388   1.439       .  S
N3386      H3389   1.046       .  S
N3386      H3390   1.045       .  S
N3388      H3391   1.046       .  S
N3388      H3392   1.046       .  S
C3397      C3398   1.415       .  A
C3397      C3402   1.405       .  A
C3398      C3399   1.408       .  A
C3398      N3403   1.438       .  S
C3399      C3400   1.404       .  A
C3399      H3404   1.084       .  S
C3400      C3401   1.415       .  A
C3400      C3405   1.499       .  S
C3401      C3402   1.412       .  A
C3401      N3406   1.437       .  S
C3402      H3407   1.083       .  S
N3403      H3423   1.046       .  S
N3403      H3424   1.045       .  S
C3405      C3408   1.404       .  A
C3405      C3412   1.416       .  A
N3406      H3421   1.046       .  S
N3406      H3422   1.046       .  S
C3408      C3409   1.407       .  A
C3408      H3413   1.084       .  S
C3409      C3410   1.413       .  A
C3409      N3414   1.433       .  S
C3410      C3411   1.404       .  A
C3411      C3412   1.413       .  A
C3411      H3415   1.084       .  S
C3412      N3416   1.438       .  S
N3414      H3417   1.045       .  S
N3414      H3418   1.045       .  S
N3416      H3419   1.046       .  S
N3416      H3420   1.046       .  S
C3425      C3426   1.409       .  A
C3425      C3430   1.402       .  A
C3426      C3427   1.406       .  A
C3426      N3431   1.432       .  S
C3427      C3428   1.406       .  A
C3427      H3432   1.084       .  S
C3428      C3429   1.425       .  A
C3428      C3433   1.505       .  S
C3429      C3430   1.410       .  A
C3429      N3434   1.437       .  S
C3430      H3435   1.083       .  S
N3431      H3451   1.045       .  S
N3431      H3452   1.045       .  S
C3433      C3436   1.410       .  A
C3433      C3440   1.412       .  A
N3434      H3449   1.045       .  S
N3434      H3450   1.043       .  S
C3436      C3437   1.415       .  A
C3436      H3441   1.083       .  S
C3437      C3438   1.413       .  A
C3437      N3442   1.437       .  S
C3438      C3439   1.404       .  A
C3439      C3440   1.406       .  A
C3439      H3443   1.084       .  S
C3440      N3444   1.432       .  S
N3442      H3445   1.045       .  S
N3442      H3446   1.045       .  S
N3444      H3447   1.046       .  S
N3444      H3448   1.046       .  S
C3453      C3454   1.415       .  A
C3453      C3458   1.405       .  A
C3454      C3455   1.416       .  A
C3454      N3459   1.437       .  S
C3455      C3456   1.408       .  A
C3455      H3460   1.083       .  S
C3456      C3457   1.412       .  A
C3456      C3461   1.500       .  S
C3457      C3458   1.407       .  A
C3457      N3462   1.439       .  S
C3458      H3463   1.080       .  S
N3459      H3479   1.045       .  S
N3459      H3480   1.046       .  S
C3461      C3464   1.406       .  A
C3461      C3468   1.413       .  A
N3462      H3477   1.046       .  S
N3462      H3478   1.046       .  S
C3464      C3465   1.408       .  A
C3464      H3469   1.084       .  S
C3465      C3466   1.411       .  A
C3465      N3470   1.430       .  S
C3466      C3467   1.406       .  A
C3467      C3468   1.412       .  A
C3467      H3471   1.084       .  S
C3468      N3472   1.437       .  S
N3470      H3473   1.045       .  S
N3470      H3474   1.046       .  S
N3472      H3475   1.045       .  S
N3472      H3476   1.046       .  S
C3481      C3482   1.411       .  A
C3481      C3486   1.409       .  A
C3482      C3483   1.414       .  A
C3482      N3487   1.431       .  S
C3483      C3484   1.409       .  A
C3483      H3488   1.084       .  S
C3484      C3485   1.411       .  A
C3484      C3489   1.503       .  S
C3485      C3486   1.410       .  A
C3485      N3490   1.432       .  S
C3486      H3491   1.084       .  S
N3487      H3507   1.045       .  S
N3487      H3508   1.046       .  S
C3489      C3492   1.403       .  A
C3489      C3496   1.413       .  A
N3490      H3505   1.046       .  S
N3490      H3506   1.045       .  S
C3492      C3493   1.407       .  A
C3492      H3497   1.084       .  S
C3493      C3494   1.423       .  A
C3493      N3498   1.440       .  S
C3494      C3495   1.404       .  A
C3495      C3496   1.412       .  A
C3495      H3499   1.083       .  S
C3496      N3500   1.431       .  S
N3498      H3501   1.045       .  S
N3498      H3502   1.043       .  S
N3500      H3503   1.046       .  S
N3500      H3504   1.046       .  S
C3509      C3510   1.411       .  A
C3509      C3514   1.403       .  A
C3510      C3511   1.417       .  A
C3510      N3515   1.436       .  S
C3511      C3512   1.411       .  A
C3511      H3516   1.083       .  S
C3512      C3513   1.411       .  A
C3512      C3517   1.505       .  S
C3513      C3514   1.406       .  A
C3513      N3518   1.432       .  S
C3514      H3519   1.084       .  S
N3515      H3535   1.045       .  S
N3515      H3536   1.045       .  S
C3517      C3520   1.407       .  A
C3517      C3524   1.414       .  A
N3518      H3533   1.045       .  S
N3518      H3534   1.046       .  S
C3520      C3521   1.415       .  A
C3520      H3525   1.083       .  S
C3521      C3522   1.414       .  A
C3521      N3526   1.437       .  S
C3522      C3523   1.405       .  A
C3523      C3524   1.410       .  A
C3523      H3527   1.084       .  S
C3524      N3528   1.432       .  S
N3526      H3529   1.045       .  S
N3526      H3530   1.045       .  S
N3528      H3531   1.046       .  S
N3528      H3532   1.045       .  S
C3537      C3538   1.415       .  A
C3537      C3542   1.406       .  A
C3538      C3539   1.410       .  A
C3538      N3543   1.438       .  S
C3539      C3540   1.406       .  A
C3539      H3544   1.083       .  S
C3540      C3541   1.417       .  A
C3540      C3545   1.508       .  S
C3541      C3542   1.414       .  A
C3541      N3546   1.437       .  S
C3542      H3547   1.082       .  S
N3543      H3563   1.046       .  S
N3543      H3564   1.045       .  S
C3545      C3548   1.408       .  A
C3545      C3552   1.416       .  A
N3546      H3561   1.046       .  S
N3546      H3562   1.046       .  S
C3548      C3549   1.414       .  A
C3548      H3553   1.083       .  S
C3549      C3550   1.414       .  A
C3549      N3554   1.437       .  S
C3550      C3551   1.407       .  A
C3551      C3552   1.411       .  A
C3551      H3555   1.084       .  S
C3552      N3556   1.438       .  S
N3554      H3557   1.046       .  S
N3554      H3558   1.045       .  S
N3556      H3559   1.045       .  S
N3556      H3560   1.046       .  S
C3565      C3566   1.412       .  A
C3565      C3570   1.402       .  A
C3566      C3567   1.407       .  A
C3566      N3571   1.438       .  S
C3567      C3568   1.405       .  A
C3567      H3572   1.083       .  S
C3568      C3569   1.417       .  A
C3568      C3573   1.499       .  S
C3569      C3570   1.409       .  A
C3569      N3574   1.438       .  S
C3570      H3575   1.081       .  S
N3571      H3591   1.046       .  S
N3571      H3592   1.045       .  S
C3573      C3576   1.400       .  A
C3573      C3580   1.415       .  A
N3574      H3589   1.046       .  S
N3574      H3590   1.045       .  S
C3576      C3577   1.404       .  A
C3576      H3581   1.084       .  S
C3577      C3578   1.422       .  A
C3577      N3582   1.439       .  S
C3578      C3579   1.408       .  A
C3579      C3580   1.415       .  A
C3579      H3583   1.083       .  S
C3580      N3584   1.437       .  S
N3582      H3585   1.046       .  S
N3582      H3586   1.045       .  S
N3584      H3587   1.045       .  S
N3584      H3588   1.046       .  S
C3593      C3594   1.420       .  A
C3593      C3598   1.406       .  A
C3594      C3595   1.390       .  A
C3594      N3599   1.434       .  S
C3595      C3596   1.392       .  A
C3595      H3600   1.085       .  S
C3596      C3597   1.408       .  A
C3596      C3601   1.463       .  S
C3597      C3598   1.407       .  A
C3597      N3602   1.437       .  S
C3598      H3603   1.083       .  S
N3599      H3619   1.046       .  S
N3599      H3620   1.046       .  S
C3601      C3604   1.401       .  A
C3601      C3608   1.403       .  A
N3602      H3617   1.045       .  S
N3602      H3618   1.046       .  S
C3604      C3605   1.408       .  A
C3604      H3609   1.084       .  S
C3605      C3606   1.414       .  A
C3605      N3610   1.437       .  S
C3606      C3607   1.404       .  A
C3607      C3608   1.390       .  A
C3607      H3611   1.082       .  S
C3608      N3612   1.440       .  S
N3610      H3613   1.046       .  S
N3610      H3614   1.045       .  S
N3612      H3615   1.045       .  S
N3612      H3616   1.046       .  S
C3621      C3622   1.411       .  A
C3621      C3626   1.398       .  A
C3622      C3623   1.405       .  A
C3622      N3627   1.438       .  S
C3623      C3624   1.401       .  A
C3623      H3628   1.084       .  S
C3624      C3625   1.410       .  A
C3624      C3629   1.475       .  S
C3625      C3626   1.397       .  A
C3625      N3630   1.438       .  S
C3626      H3631   1.082       .  S
N3627      H3647   1.045       .  S
N3627      H3648   1.046       .  S
C3629      C3632   1.400       .  A
C3629      C3636   1.408       .  A
N3630      H3645   1.046       .  S
N3630      H3646   1.045       .  S
C3632      C3633   1.393       .  A
C3632      H3637   1.084       .  S
C3633      C3634   1.407       .  A
C3633      N3638   1.431       .  S
C3634      C3635   1.405       .  A
C3635      C3636   1.407       .  A
C3635      H3639   1.084   1_455  S
C3636      N3640   1.437   1_455  S
N3638      H3641   1.046       .  S
N3638      H3642   1.045       .  S
N3640      H3643   1.046       .  S
N3640      H3644   1.046       .  S
C3649      C3650   1.412       .  A
C3649      C3654   1.407       .  A
C3650      C3651   1.416       .  A
C3650      N3655   1.436       .  S
C3651      C3652   1.406       .  A
C3651      H3656   1.084       .  S
C3652      C3653   1.412       .  A
C3652      C3657   1.495       .  S
C3653      C3654   1.411       .  A
C3653      N3658   1.439   1_655  S
C3654      H3659   1.084   1_655  S
N3655      H3675   1.045       .  S
N3655      H3676   1.046       .  S
C3657      C3660   1.401   1_655  A
C3657      C3664   1.415       .  A
N3658      H3673   1.045       .  S
N3658      H3674   1.045       .  S
C3660      C3661   1.405       .  A
C3660      H3665   1.084       .  S
C3661      C3662   1.412   1_455  A
C3661      N3666   1.434   1_554  S
C3662      C3663   1.405       .  A
C3663      C3664   1.417       .  A
C3663      H3667   1.083       .  S
C3664      N3668   1.437       .  S
N3666      H3669   1.045   1_556  S
N3666      H3670   1.045       .  S
N3668      H3671   1.045       .  S
N3668      H3672   1.044       .  S
C3677      C3678   1.415       .  A
C3677      C3682   1.412       .  A
C3678      C3679   1.418       .  A
C3678      N3683   1.437       .  S
C3679      C3680   1.413       .  A
C3679      H3684   1.083       .  S
C3680      C3681   1.413       .  A
C3680      C3685   1.512       .  S
C3681      C3682   1.408       .  A
C3681      N3686   1.438       .  S
C3682      H3687   1.083       .  S
N3683      H3703   1.045       .  S
N3683      H3704   1.046       .  S
C3685      C3688   1.412       .  A
C3685      C3692   1.416       .  A
N3686      H3701   1.045       .  S
N3686      H3702   1.046       .  S
C3688      C3689   1.411       .  A
C3688      H3693   1.083       .  S
C3689      C3690   1.418       .  A
C3689      N3694   1.437       .  S
C3690      C3691   1.404       .  A
C3691      C3692   1.408       .  A
C3691      H3695   1.082       .  S
C3692      N3696   1.438       .  S
N3694      H3697   1.045       .  S
N3694      H3698   1.044       .  S
N3696      H3699   1.046       .  S
N3696      H3700   1.046       .  S
C3705      C3706   1.415       .  A
C3705      C3710   1.406       .  A
C3706      C3707   1.411       .  A
C3706      N3711   1.437       .  S
C3707      C3708   1.406       .  A
C3707      H3712   1.083       .  S
C3708      C3709   1.417       .  A
C3708      C3713   1.507       .  S
C3709      C3710   1.414       .  A
C3709      N3714   1.437       .  S
C3710      H3715   1.084       .  S
N3711      H3731   1.046       .  S
N3711      H3732   1.046       .  S
C3713      C3716   1.405       .  A
C3713      C3720   1.418       .  A
N3714      H3729   1.046       .  S
N3714      H3730   1.046       .  S
C3716      C3717   1.405       .  A
C3716      H3721   1.083       .  S
C3717      C3718   1.420       .  A
C3717      N3722   1.439       .  S
C3718      C3719   1.404       .  A
C3719      C3720   1.415       .  A
C3719      H3723   1.083       .  S
C3720      N3724   1.437       .  S
N3722      H3725   1.045       .  S
N3722      H3726   1.043       .  S
N3724      H3727   1.045       .  S
N3724      H3728   1.046       .  S
C3733      C3734   1.418       .  A
C3733      C3738   1.402       .  A
C3734      C3735   1.406       .  A
C3734      N3739   1.438   1_554  S
C3735      C3736   1.397       .  A
C3735      H3740   1.084   1_554  S
C3736      C3737   1.404       .  A
C3736      C3741   1.468       .  S
C3737      C3738   1.394       .  A
C3737      N3742   1.434       .  S
C3738      H3743   1.080       .  S
N3739      H3759   1.045       .  S
N3739      H3760   1.046       .  S
C3741      C3744   1.399       .  A
C3741      C3748   1.410       .  A
N3742      H3757   1.046       .  S
N3742      H3758   1.045       .  S
C3744      C3745   1.402       .  A
C3744      H3749   1.084       .  S
C3745      C3746   1.407       .  A
C3745      N3750   1.437       .  S
C3746      C3747   1.396       .  A
C3747      C3748   1.401       .  A
C3747      H3751   1.079       .  S
C3748      N3752   1.439       .  S
N3750      H3753   1.046       .  S
N3750      H3754   1.045       .  S
N3752      H3755   1.046       .  S
N3752      H3756   1.045       .  S
C3761      C3762   1.409       .  A
C3761      C3766   1.398       .  A
C3762      C3763   1.396       .  A
C3762      N3767   1.437   1_556  S
C3763      C3764   1.395       .  A
C3763      H3768   1.084       .  S
C3764      C3765   1.411       .  A
C3764      C3769   1.463       .  S
C3765      C3766   1.403       .  A
C3765      N3770   1.438       .  S
C3766      H3771   1.083       .  S
N3767      H3787   1.046       .  S
N3767      H3788   1.046       .  S
C3769      C3772   1.397       .  A
C3769      C3776   1.406       .  A
N3770      H3785   1.046       .  S
N3770      H3786   1.045       .  S
C3772      C3773   1.402       .  A
C3772      H3777   1.084       .  S
C3773      C3774   1.415       .  A
C3773      N3778   1.438       .  S
C3774      C3775   1.402       .  A
C3775      C3776   1.398       .  A
C3775      H3779   1.084       .  S
C3776      N3780   1.439       .  S
N3778      H3781   1.046       .  S
N3778      H3782   1.046       .  S
N3780      H3783   1.046       .  S
N3780      H3784   1.045       .  S
C3789      C3790   1.418       .  A
C3789      C3794   1.407       .  A
C3790      C3791   1.407       .  A
C3790      N3795   1.437       .  S
C3791      C3792   1.398       .  A
C3791      H3796   1.084       .  S
C3792      C3793   1.405       .  A
C3792      C3797   1.467       .  S
C3793      C3794   1.395       .  A
C3793      N3798   1.439       .  S
C3794      H3799   1.083       .  S
N3795      H3815   1.045       .  S
N3795      H3816   1.045       .  S
C3797      C3800   1.405       .  A
C3797      C3804   1.406       .  A
N3798      H3813   1.045       .  S
N3798      H3814   1.046       .  S
C3800      C3801   1.405       .  A
C3800      H3805   1.084       .  S
C3801      C3802   1.405       .  A
C3801      N3806   1.437       .  S
C3802      C3803   1.400       .  A
C3803      C3804   1.396       .  A
C3803      H3807   1.083   1_565  S
C3804      N3808   1.439       .  S
N3806      H3809   1.045       .  S
N3806      H3810   1.046       .  S
N3808      H3811   1.046   1_565  S
N3808      H3812   1.045       .  S
C3817      C3818   1.412       .  A
C3817      C3822   1.398       .  A
C3818      C3819   1.400       .  A
C3818      N3823   1.438   1_565  S
C3819      C3820   1.400       .  A
C3819      H3824   1.083       .  S
C3820      C3821   1.414       .  A
C3820      C3825   1.477       .  S
C3821      C3822   1.399       .  A
C3821      N3826   1.438       .  S
C3822      H3827   1.084       .  S
N3823      H3843   1.045       .  S
N3823      H3844   1.046       .  S
C3825      C3828   1.398       .  A
C3825      C3832   1.412       .  A
N3826      H3841   1.046       .  S
N3826      H3842   1.045       .  S
C3828      C3829   1.391       .  A
C3828      H3833   1.084       .  S
C3829      C3830   1.410       .  A
C3829      N3834   1.431       .  S
C3830      C3831   1.403       .  A
C3831      C3832   1.407       .  A
C3831      H3835   1.084       .  S
C3832      N3836   1.437       .  S
N3834      H3837   1.046       .  S
N3834      H3838   1.046       .  S
N3836      H3839   1.046       .  S
N3836      H3840   1.045       .  S
C3845      C3846   1.417       .  A
C3845      C3850   1.405       .  A
C3846      C3847   1.414       .  A
C3846      N3851   1.438       .  S
C3847      C3848   1.407       .  A
C3847      H3852   1.083       .  S
C3848      C3849   1.418       .  A
C3848      C3853   1.510       .  S
C3849      C3850   1.412       .  A
C3849      N3854   1.438       .  S
C3850      H3855   1.084       .  S
N3851      H3871   1.044       .  S
N3851      H3872   1.046       .  S
C3853      C3856   1.405       .  A
C3853      C3860   1.415       .  A
N3854      H3869   1.046       .  S
N3854      H3870   1.046       .  S
C3856      C3857   1.406       .  A
C3856      H3861   1.083       .  S
C3857      C3858   1.423       .  A
C3857      N3862   1.438       .  S
C3858      C3859   1.407       .  A
C3859      C3860   1.412       .  A
C3859      H3863   1.083       .  S
C3860      N3864   1.432       .  S
N3862      H3865   1.043       .  S
N3862      H3866   1.043       .  S
N3864      H3867   1.046       .  S
N3864      H3868   1.046       .  S
C3873      C3874   1.412       .  A
C3873      C3878   1.402       .  A
C3874      C3875   1.410       .  A
C3874      N3879   1.438       .  S
C3875      C3876   1.409       .  A
C3875      H3880   1.083       .  S
C3876      C3877   1.414       .  A
C3876      C3881   1.501       .  S
C3877      C3878   1.408       .  A
C3877      N3882   1.438       .  S
C3878      H3883   1.079       .  S
N3879      H3899   1.046       .  S
N3879      H3900   1.045       .  S
C3881      C3884   1.410       .  A
C3881      C3888   1.412       .  A
N3882      H3897   1.046       .  S
N3882      H3898   1.046       .  S
C3884      C3885   1.409       .  A
C3884      H3889   1.083       .  S
C3885      C3886   1.407       .  A
C3885      N3890   1.430       .  S
C3886      C3887   1.403       .  A
C3887      C3888   1.404       .  A
C3887      H3891   1.084       .  S
C3888      N3892   1.432       .  S
N3890      H3893   1.045       .  S
N3890      H3894   1.046       .  S
N3892      H3895   1.046       .  S
N3892      H3896   1.046       .  S
C3901      C3902   1.411       .  A
C3901      C3906   1.406       .  A
C3902      C3903   1.416       .  A
C3902      N3907   1.436       .  S
C3903      C3904   1.409       .  A
C3903      H3908   1.084       .  S
C3904      C3905   1.411       .  A
C3904      C3909   1.497       .  S
C3905      C3906   1.407       .  A
C3905      N3910   1.439   1_554  S
C3906      H3911   1.084   1_554  S
N3907      H3927   1.045       .  S
N3907      H3928   1.046       .  S
C3909      C3912   1.408       .  A
C3909      C3916   1.412       .  A
N3910      H3925   1.046       .  S
N3910      H3926   1.046       .  S
C3912      C3913   1.409       .  A
C3912      H3917   1.084       .  S
C3913      C3914   1.406       .  A
C3913      N3918   1.430       .  S
C3914      C3915   1.404   1_554  A
C3915      C3916   1.409   1_556  A
C3915      H3919   1.084   1_565  S
C3916      N3920   1.437   1_554  S
N3918      H3921   1.045       .  S
N3918      H3922   1.046       .  S
N3920      H3923   1.045   1_565  S
N3920      H3924   1.046       .  S
C3929      C3930   1.407       .  A
C3929      C3934   1.405       .  A
C3930      C3931   1.395       .  A
C3930      N3935   1.432       .  S
C3931      C3932   1.403       .  A
C3931      H3936   1.084       .  S
C3932      C3933   1.409       .  A
C3932      C3937   1.483       .  S
C3933      C3934   1.405       .  A
C3933      N3938   1.432       .  S
C3934      H3939   1.084       .  S
N3935      H3955   1.046       .  S
N3935      H3956   1.045       .  S
C3937      C3940   1.403       .  A
C3937      C3944   1.409       .  A
N3938      H3953   1.046       .  S
N3938      H3954   1.045       .  S
C3940      C3941   1.395       .  A
C3940      H3945   1.084       .  S
C3941      C3942   1.408       .  A
C3941      N3946   1.432       .  S
C3942      C3943   1.406       .  A
C3943      C3944   1.406       .  A
C3943      H3947   1.084   1_455  S
C3944      N3948   1.432   1_455  S
N3946      H3949   1.046       .  S
N3946      H3950   1.045       .  S
N3948      H3951   1.045       .  S
N3948      H3952   1.046       .  S
C3957      C3958   1.409       .  A
C3957      C3962   1.407       .  A
C3958      C3959   1.397       .  A
C3958      N3963   1.433       .  S
C3959      C3960   1.400       .  A
C3959      H3964   1.084       .  S
C3960      C3961   1.406       .  A
C3960      C3965   1.471       .  S
C3961      C3962   1.406       .  A
C3961      N3966   1.437   1_655  S
C3962      H3967   1.083   1_655  S
N3963      H3983   1.046       .  S
N3963      H3984   1.046       .  S
C3965      C3968   1.404       .  A
C3965      C3972   1.406       .  A
N3966      H3981   1.046       .  S
N3966      H3982   1.044   1_455  S
C3968      C3969   1.405       .  A
C3968      H3973   1.084       .  S
C3969      C3970   1.405       .  A
C3969      N3974   1.434       .  S
C3970      C3971   1.402       .  A
C3971      C3972   1.401       .  A
C3971      H3975   1.084       .  S
C3972      N3976   1.438       .  S
N3974      H3977   1.046       .  S
N3974      H3978   1.045       .  S
N3976      H3979   1.046       .  S
N3976      H3980   1.044       .  S
C3985      C3986   1.409       .  A
C3985      C3990   1.405       .  A
C3986      C3987   1.393       .  A
C3986      N3991   1.432       .  S
C3987      C3988   1.401       .  A
C3987      H3992   1.084       .  S
C3988      C3989   1.410       .  A
C3988      C3993   1.477       .  S
C3989      C3990   1.407       .  A
C3989      N3994   1.437       .  S
C3990      H3995   1.084       .  S
N3991      H4011   1.046       .  S
N3991      H4012   1.046       .  S
C3993      C3996   1.402       .  A
C3993      C4000   1.411       .  A
N3994      H4009   1.046       .  S
N3994      H4010   1.045       .  S
C3996      C3997   1.404       .  A
C3996      H4001   1.083       .  S
C3997      C3998   1.410       .  A
C3997      N4002   1.438       .  S
C3998      C3999   1.398       .  A
C3999      C4000   1.398       .  A
C3999      H4003   1.082       .  S
C4000      N4004   1.438       .  S
N4002      H4005   1.046       .  S
N4002      H4006   1.045       .  S
N4004      H4007   1.046       .  S
N4004      H4008   1.046       .  S
C4013      C4014   1.413       .  A
C4013      C4018   1.398       .  A
C4014      C4015   1.405       .  A
C4014      N4019   1.438       .  S
C4015      C4016   1.400       .  A
C4015      H4020   1.084       .  S
C4016      C4017   1.412       .  A
C4016      C4021   1.477       .  S
C4017      C4018   1.399       .  A
C4017      N4022   1.438       .  S
C4018      H4023   1.083       .  S
N4019      H4039   1.045       .  S
N4019      H4040   1.046       .  S
C4021      C4024   1.400       .  A
C4021      C4028   1.410       .  A
N4022      H4037   1.046       .  S
N4022      H4038   1.045       .  S
C4024      C4025   1.393       .  A
C4024      H4029   1.084       .  S
C4025      C4026   1.408       .  A
C4025      N4030   1.432       .  S
C4026      C4027   1.406       .  A
C4027      C4028   1.407       .  A
C4027      H4031   1.084       .  S
C4028      N4032   1.437       .  S
N4030      H4033   1.045       .  S
N4030      H4034   1.046       .  S
N4032      H4035   1.046       .  S
N4032      H4036   1.046       .  S
C4041      C4042   1.409       .  A
C4041      C4046   1.406       .  A
C4042      C4043   1.412       .  A
C4042      N4047   1.431       .  S
C4043      C4044   1.409       .  A
C4043      H4048   1.083       .  S
C4044      C4045   1.410       .  A
C4044      C4049   1.497       .  S
C4045      C4046   1.404       .  A
C4045      N4050   1.433       .  S
C4046      H4051   1.084       .  S
N4047      H4067   1.045       .  S
N4047      H4068   1.045       .  S
C4049      C4052   1.403       .  A
C4049      C4056   1.416       .  A
N4050      H4065   1.046       .  S
N4050      H4066   1.046       .  S
C4052      C4053   1.408       .  A
C4052      H4057   1.084       .  S
C4053      C4054   1.413       .  A
C4053      N4058   1.439       .  S
C4054      C4055   1.401       .  A
C4055      C4056   1.411       .  A
C4055      H4059   1.083       .  S
C4056      N4060   1.437       .  S
N4058      H4061   1.045       .  S
N4058      H4062   1.044       .  S
N4060      H4063   1.046       .  S
N4060      H4064   1.045       .  S
C4069      C4070   1.412       .  A
C4069      C4074   1.408       .  A
C4070      C4071   1.413       .  A
C4070      N4075   1.432       .  S
C4071      C4072   1.409       .  A
C4071      H4076   1.084       .  S
C4072      C4073   1.413       .  A
C4072      C4077   1.502       .  S
C4073      C4074   1.409       .  A
C4073      N4078   1.438       .  S
C4074      H4079   1.083       .  S
N4075      H4095   1.045   1_455  S
N4075      H4096   1.046       .  S
C4077      C4080   1.408       .  A
C4077      C4084   1.410   1_455  A
N4078      H4093   1.046       .  S
N4078      H4094   1.045   1_455  S
C4080      C4081   1.412       .  A
C4080      H4085   1.084       .  S
C4081      C4082   1.413       .  A
C4081      N4086   1.430       .  S
C4082      C4083   1.406   1_455  A
C4083      C4084   1.408       .  A
C4083      H4087   1.084       .  S
C4084      N4088   1.432       .  S
N4086      H4089   1.045       .  S
N4086      H4090   1.046       .  S
N4088      H4091   1.045       .  S
N4088      H4092   1.046       .  S
C4097      C4098   1.413       .  A
C4097      C4102   1.406       .  A
C4098      C4099   1.415       .  A
C4098      N4103   1.437       .  S
C4099      C4100   1.407       .  A
C4099      H4104   1.084       .  S
C4100      C4101   1.411       .  A
C4100      C4105   1.493       .  S
C4101      C4102   1.409       .  A
C4101      N4106   1.439       .  S
C4102      H4107   1.084       .  S
N4103      H4123   1.045       .  S
N4103      H4124   1.046       .  S
C4105      C4108   1.402       .  A
C4105      C4112   1.415       .  A
N4106      H4121   1.046       .  S
N4106      H4122   1.043       .  S
C4108      C4109   1.408       .  A
C4108      H4113   1.084       .  S
C4109      C4110   1.413       .  A
C4109      N4114   1.438       .  S
C4110      C4111   1.404       .  A
C4111      C4112   1.414       .  A
C4111      H4115   1.083       .  S
C4112      N4116   1.438       .  S
N4114      H4117   1.045       .  S
N4114      H4118   1.045       .  S
N4116      H4119   1.046       .  S
N4116      H4120   1.044       .  S
C4125      C4126   1.411       .  A
C4125      C4130   1.405       .  A
C4126      C4127   1.411       .  A
C4126      N4131   1.436       .  S
C4127      C4128   1.409       .  A
C4127      H4132   1.083       .  S
C4128      C4129   1.412       .  A
C4128      C4133   1.499       .  S
C4129      C4130   1.404       .  A
C4129      N4134   1.438       .  S
C4130      H4135   1.084   1_565  S
N4131      H4151   1.044       .  S
N4131      H4152   1.045       .  S
C4133      C4136   1.407       .  A
C4133      C4140   1.413       .  A
N4134      H4149   1.045   1_565  S
N4134      H4150   1.046       .  S
C4136      C4137   1.409       .  A
C4136      H4141   1.083       .  S
C4137      C4138   1.413       .  A
C4137      N4142   1.438       .  S
C4138      C4139   1.406       .  A
C4139      C4140   1.408       .  A
C4139      H4143   1.084       .  S
C4140      N4144   1.438       .  S
N4142      H4145   1.046       .  S
N4142      H4146   1.045       .  S
N4144      H4147   1.046       .  S
N4144      H4148   1.046       .  S
C4153      C4154   1.413       .  A
C4153      C4158   1.406       .  A
C4154      C4155   1.414       .  A
C4154      N4159   1.437       .  S
C4155      C4156   1.409       .  A
C4155      H4160   1.083       .  S
C4156      C4157   1.410       .  A
C4156      C4161   1.492       .  S
C4157      C4158   1.399       .  A
C4157      N4162   1.439       .  S
C4158      H4163   1.084       .  S
N4159      H4179   1.045       .  S
N4159      H4180   1.046       .  S
C4161      C4164   1.406       .  A
C4161      C4168   1.412       .  A
N4162      H4177   1.045       .  S
N4162      H4178   1.046       .  S
C4164      C4165   1.402       .  A
C4164      H4169   1.084       .  S
C4165      C4166   1.407       .  A
C4165      N4170   1.429       .  S
C4166      C4167   1.404       .  A
C4167      C4168   1.407       .  A
C4167      H4171   1.084       .  S
C4168      N4172   1.437       .  S
N4170      H4173   1.045       .  S
N4170      H4174   1.046       .  S
N4172      H4175   1.046       .  S
N4172      H4176   1.045       .  S
C4181      C4182   1.413       .  A
C4181      C4186   1.406   1_565  A
C4182      C4183   1.413       .  A
C4182      N4187   1.437       .  S
C4183      C4184   1.408       .  A
C4183      H4188   1.083       .  S
C4184      C4185   1.413       .  A
C4184      C4189   1.498       .  S
C4185      C4186   1.407   1_565  A
C4185      N4190   1.438   1_565  S
C4186      H4191   1.084       .  S
N4187      H4207   1.045   1_565  S
N4187      H4208   1.045       .  S
C4189      C4192   1.404   1_565  A
C4189      C4196   1.414       .  A
N4190      H4205   1.046       .  S
N4190      H4206   1.045       .  S
C4192      C4193   1.408       .  A
C4192      H4197   1.083       .  S
C4193      C4194   1.412   1_545  A
C4193      N4198   1.438   1_455  S
C4194      C4195   1.402       .  A
C4195      C4196   1.408       .  A
C4195      H4199   1.083       .  S
C4196      N4200   1.432       .  S
N4198      H4201   1.045       .  S
N4198      H4202   1.043       .  S
N4200      H4203   1.046       .  S
N4200      H4204   1.046       .  S
C4209      C4210   1.410   1_455  A
C4209      C4214   1.404       .  A
C4210      C4211   1.407   1_655  A
C4210      N4215   1.439       .  S
C4211      C4212   1.408       .  A
C4211      H4216   1.083   1_455  S
C4212      C4213   1.421       .  A
C4212      C4217   1.515       .  S
C4213      C4214   1.418       .  A
C4213      N4218   1.437       .  S
C4214      H4219   1.083       .  S
N4215      H4235   1.040       .  S
N4215      H4236   1.046       .  S
C4217      C4220   1.412       .  A
C4217      C4224   1.420   1_455  A
N4218      H4233   1.045       .  S
N4218      H4234   1.046       .  S
C4220      C4221   1.418       .  A
C4220      H4225   1.083       .  S
C4221      C4222   1.413       .  A
C4221      N4226   1.437       .  S
C4222      C4223   1.402   1_455  A
C4223      C4224   1.409       .  A
C4223      H4227   1.084       .  S
C4224      N4228   1.438       .  S
N4226      H4229   1.046       .  S
N4226      H4230   1.045       .  S
N4228      H4231   1.046       .  S
N4228      H4232   1.046       .  S
C4237      C4238   1.415       .  A
C4237      C4242   1.410       .  A
C4238      C4239   1.415       .  A
C4238      N4243   1.437       .  S
C4239      C4240   1.408       .  A
C4239      H4244   1.083       .  S
C4240      C4241   1.409       .  A
C4240      C4245   1.497       .  S
C4241      C4242   1.407       .  A
C4241      N4246   1.438       .  S
C4242      H4247   1.084       .  S
N4243      H4263   1.045   1_655  S
N4243      H4264   1.045       .  S
C4245      C4248   1.408       .  A
C4245      C4252   1.409   1_655  A
N4246      H4261   1.046       .  S
N4246      H4262   1.046   1_655  S
C4248      C4249   1.409       .  A
C4248      H4253   1.084       .  S
C4249      C4250   1.418       .  A
C4249      N4254   1.437       .  S
C4250      C4251   1.407   1_655  A
C4251      C4252   1.406       .  A
C4251      H4255   1.084       .  S
C4252      N4256   1.438       .  S
N4254      H4257   1.046       .  S
N4254      H4258   1.042       .  S
N4256      H4259   1.046       .  S
N4256      H4260   1.046       .  S
C4265      C4266   1.410       .  A
C4265      C4270   1.404       .  A
C4266      C4267   1.392       .  A
C4266      N4271   1.432       .  S
C4267      C4268   1.400       .  A
C4267      H4272   1.084       .  S
C4268      C4269   1.409       .  A
C4268      C4273   1.474       .  S
C4269      C4270   1.405       .  A
C4269      N4274   1.437       .  S
C4270      H4275   1.084       .  S
N4271      H4291   1.046       .  S
N4271      H4292   1.046       .  S
C4273      C4276   1.403       .  A
C4273      C4280   1.411       .  A
N4274      H4289   1.046       .  S
N4274      H4290   1.045       .  S
C4276      C4277   1.403       .  A
C4276      H4281   1.083       .  S
C4277      C4278   1.408       .  A
C4277      N4282   1.438   1_655  S
C4278      C4279   1.397       .  A
C4279      C4280   1.394       .  A
C4279      H4283   1.080       .  S
C4280      N4284   1.439       .  S
N4282      H4285   1.046       .  S
N4282      H4286   1.046       .  S
N4284      H4287   1.046       .  S
N4284      H4288   1.046       .  S
C4293      C4294   1.409       .  A
C4293      C4298   1.406       .  A
C4294      C4295   1.395       .  A
C4294      N4299   1.433       .  S
C4295      C4296   1.399       .  A
C4295      H4300   1.085       .  S
C4296      C4297   1.403       .  A
C4296      C4301   1.462       .  S
C4297      C4298   1.401       .  A
C4297      N4302   1.437       .  S
C4298      H4303   1.084   1_545  S
N4299      H4319   1.046       .  S
N4299      H4320   1.046       .  S
C4301      C4304   1.403       .  A
C4301      C4308   1.403       .  A
N4302      H4317   1.046   1_545  S
N4302      H4318   1.046       .  S
C4304      C4305   1.403       .  A
C4304      H4309   1.084       .  S
C4305      C4306   1.405       .  A
C4305      N4310   1.436       .  S
C4306      C4307   1.399       .  A
C4307      C4308   1.395       .  A
C4307      H4311   1.082       .  S
C4308      N4312   1.438       .  S
N4310      H4313   1.045       .  S
N4310      H4314   1.046       .  S
N4312      H4315   1.046       .  S
N4312      H4316   1.045       .  S
C4321      C4322   1.412       .  A
C4321      C4326   1.397       .  A
C4322      C4323   1.407       .  A
C4322      N4327   1.438   1_565  S
C4323      C4324   1.401       .  A
C4323      H4328   1.084   1_565  S
C4324      C4325   1.408       .  A
C4324      C4329   1.475       .  S
C4325      C4326   1.401       .  A
C4325      N4330   1.439       .  S
C4326      H4331   1.075       .  S
N4327      H4347   1.045       .  S
N4327      H4348   1.046       .  S
C4329      C4332   1.400       .  A
C4329      C4336   1.410       .  A
N4330      H4345   1.046       .  S
N4330      H4346   1.045       .  S
C4332      C4333   1.405       .  A
C4332      H4337   1.084       .  S
C4333      C4334   1.411       .  A
C4333      N4338   1.438       .  S
C4334      C4335   1.398       .  A
C4335      C4336   1.403       .  A
C4335      H4339   1.078       .  S
C4336      N4340   1.439       .  S
N4338      H4341   1.046       .  S
N4338      H4342   1.045       .  S
N4340      H4343   1.046       .  S
N4340      H4344   1.046       .  S
C4349      C4350   1.409       .  A
C4349      C4354   1.404       .  A
C4350      C4351   1.407       .  A
C4350      N4355   1.437       .  S
C4351      C4352   1.405       .  A
C4351      H4356   1.084       .  S
C4352      C4353   1.408       .  A
C4352      C4357   1.474       .  S
C4353      C4354   1.396       .  A
C4353      N4358   1.439       .  S
C4354      H4359   1.084       .  S
N4355      H4375   1.045       .  S
N4355      H4376   1.046       .  S
C4357      C4360   1.406       .  A
C4357      C4364   1.408       .  A
N4358      H4373   1.046       .  S
N4358      H4374   1.046       .  S
C4360      C4361   1.405       .  A
C4360      H4365   1.084       .  S
C4361      C4362   1.407       .  A
C4361      N4366   1.437       .  S
C4362      C4363   1.403       .  A
C4363      C4364   1.397       .  A
C4363      H4367   1.085       .  S
C4364      N4368   1.439       .  S
N4366      H4369   1.046       .  S
N4366      H4370   1.045       .  S
N4368      H4371   1.046       .  S
N4368      H4372   1.046       .  S
C4377      C4378   1.412       .  A
C4377      C4382   1.407       .  A
C4378      C4379   1.411       .  A
C4378      N4383   1.437       .  S
C4379      C4380   1.409       .  A
C4379      H4384   1.083       .  S
C4380      C4381   1.410       .  A
C4380      C4385   1.498       .  S
C4381      C4382   1.404       .  A
C4381      N4386   1.438       .  S
C4382      H4387   1.084       .  S
N4383      H4403   1.045       .  S
N4383      H4404   1.046       .  S
C4385      C4388   1.410       .  A
C4385      C4392   1.412       .  A
N4386      H4401   1.046       .  S
N4386      H4402   1.046       .  S
C4388      C4389   1.408       .  A
C4388      H4393   1.083       .  S
C4389      C4390   1.408       .  A
C4389      N4394   1.431       .  S
C4390      C4391   1.406       .  A
C4391      C4392   1.405       .  A
C4391      H4395   1.083       .  S
C4392      N4396   1.438       .  S
N4394      H4397   1.045       .  S
N4394      H4398   1.045       .  S
N4396      H4399   1.046       .  S
N4396      H4400   1.046       .  S
C4405      C4406   1.414       .  A
C4405      C4410   1.404       .  A
C4406      C4407   1.405       .  A
C4406      N4411   1.433       .  S
C4407      C4408   1.404       .  A
C4407      H4412   1.084       .  S
C4408      C4409   1.414       .  A
C4408      C4413   1.498       .  S
C4409      C4410   1.410       .  A
C4409      N4414   1.432       .  S
C4410      H4415   1.084       .  S
N4411      H4431   1.045       .  S
N4411      H4432   1.046       .  S
C4413      C4416   1.409       .  A
C4413      C4420   1.411       .  A
N4414      H4429   1.046       .  S
N4414      H4430   1.046       .  S
C4416      C4417   1.408       .  A
C4416      H4421   1.084       .  S
C4417      C4418   1.415       .  A
C4417      N4422   1.437       .  S
C4418      C4419   1.402       .  A
C4419      C4420   1.403       .  A
C4419      H4423   1.084       .  S
C4420      N4424   1.432       .  S
N4422      H4425   1.045       .  S
N4422      H4426   1.044       .  S
N4424      H4427   1.045       .  S
N4424      H4428   1.046       .  S
C4433      C4434   1.418       .  A
C4433      C4438   1.405       .  A
C4434      C4435   1.407       .  A
C4434      N4439   1.439       .  S
C4435      C4436   1.403       .  A
C4435      H4440   1.084       .  S
C4436      C4437   1.414       .  A
C4436      C4441   1.496       .  S
C4437      C4438   1.411       .  A
C4437      N4442   1.437       .  S
C4438      H4443   1.083       .  S
N4439      H4459   1.046   1_545  S
N4439      H4460   1.045       .  S
C4441      C4444   1.404   1_545  A
C4441      C4448   1.416       .  A
N4442      H4457   1.046       .  S
N4442      H4458   1.046       .  S
C4444      C4445   1.406       .  A
C4444      H4449   1.083       .  S
C4445      C4446   1.410   1_565  A
C4445      N4450   1.438   1_655  S
C4446      C4447   1.402       .  A
C4447      C4448   1.411       .  A
C4447      H4451   1.083       .  S
C4448      N4452   1.437       .  S
N4450      H4453   1.045       .  S
N4450      H4454   1.046       .  S
N4452      H4455   1.046       .  S
N4452      H4456   1.045       .  S
C4461      C4462   1.409       .  A
C4461      C4466   1.399       .  A
C4462      C4463   1.402       .  A
C4462      N4467   1.437   1_556  S
C4463      C4464   1.399       .  A
C4463      H4468   1.084       .  S
C4464      C4465   1.409       .  A
C4464      C4469   1.471       .  S
C4465      C4466   1.404       .  A
C4465      N4470   1.437       .  S
C4466      H4471   1.081       .  S
N4467      H4487   1.046       .  S
N4467      H4488   1.045       .  S
C4469      C4472   1.400       .  A
C4469      C4476   1.405       .  A
N4470      H4485   1.046       .  S
N4470      H4486   1.045       .  S
C4472      C4473   1.398       .  A
C4472      H4477   1.084       .  S
C4473      C4474   1.409       .  A
C4473      N4478   1.432       .  S
C4474      C4475   1.409       .  A
C4475      C4476   1.406       .  A
C4475      H4479   1.083       .  S
C4476      N4480   1.437       .  S
N4478      H4481   1.046       .  S
N4478      H4482   1.046       .  S
N4480      H4483   1.045       .  S
N4480      H4484   1.046       .  S
C4489      C4490   1.417       .  A
C4489      C4494   1.409       .  A
C4490      C4491   1.394       .  A
C4490      N4495   1.439       .  S
C4491      C4492   1.395       .  A
C4491      H4496   1.085       .  S
C4492      C4493   1.403       .  A
C4492      C4497   1.462       .  S
C4493      C4494   1.404       .  A
C4493      N4498   1.437       .  S
C4494      H4499   1.083       .  S
N4495      H4515   1.045       .  S
N4495      H4516   1.045       .  S
C4497      C4500   1.403       .  A
C4497      C4504   1.403       .  A
N4498      H4513   1.045       .  S
N4498      H4514   1.046       .  S
C4500      C4501   1.405       .  A
C4500      H4505   1.084       .  S
C4501      C4502   1.405       .  A
C4501      N4506   1.436       .  S
C4502      C4503   1.399       .  A
C4503      C4504   1.393       .  A
C4503      H4507   1.080       .  S
C4504      N4508   1.438       .  S
N4506      H4509   1.045       .  S
N4506      H4510   1.045       .  S
N4508      H4511   1.045       .  S
N4508      H4512   1.046       .  S
C4517      C4518   1.407       .  A
C4517      C4522   1.399       .  A
C4518      C4519   1.396       .  A
C4518      N4523   1.437   1_655  S
C4519      C4520   1.396       .  A
C4519      H4524   1.084       .  S
C4520      C4521   1.410       .  A
C4520      C4525   1.462       .  S
C4521      C4522   1.403       .  A
C4521      N4526   1.438       .  S
C4522      H4527   1.082       .  S
N4523      H4543   1.046       .  S
N4523      H4544   1.046       .  S
C4525      C4528   1.397       .  A
C4525      C4532   1.408       .  A
N4526      H4541   1.046       .  S
N4526      H4542   1.045       .  S
C4528      C4529   1.401       .  A
C4528      H4533   1.084       .  S
C4529      C4530   1.413       .  A
C4529      N4534   1.439       .  S
C4530      C4531   1.399       .  A
C4531      C4532   1.397       .  A
C4531      H4535   1.084       .  S
C4532      N4536   1.438       .  S
N4534      H4537   1.046       .  S
N4534      H4538   1.046       .  S
N4536      H4539   1.046       .  S
N4536      H4540   1.046       .  S
C4545      C4546   1.410       .  A
C4545      C4550   1.397       .  A
C4546      C4547   1.404       .  A
C4546      N4551   1.438       .  S
C4547      C4548   1.402       .  A
C4547      H4552   1.084       .  S
C4548      C4549   1.411       .  A
C4548      C4553   1.475       .  S
C4549      C4550   1.396       .  A
C4549      N4554   1.439       .  S
C4550      H4555   1.080       .  S
N4551      H4571   1.045       .  S
N4551      H4572   1.046       .  S
C4553      C4556   1.400       .  A
C4553      C4560   1.409       .  A
N4554      H4569   1.046       .  S
N4554      H4570   1.046       .  S
C4556      C4557   1.393       .  A
C4556      H4561   1.084       .  S
C4557      C4558   1.410       .  A
C4557      N4562   1.433       .  S
C4558      C4559   1.405       .  A
C4559      C4560   1.406       .  A
C4559      H4563   1.083   1_556  S
C4560      N4564   1.437       .  S
N4562      H4565   1.046       .  S
N4562      H4566   1.045       .  S
N4564      H4567   1.046   1_556  S
N4564      H4568   1.046   1_556  S
C4573      C4574   1.418       .  A
C4573      C4578   1.409       .  A
C4574      C4575   1.406       .  A
C4574      N4579   1.432       .  S
C4575      C4576   1.399       .  A
C4575      H4580   1.084       .  S
C4576      C4577   1.409       .  A
C4576      C4581   1.486       .  S
C4577      C4578   1.410       .  A
C4577      N4582   1.437       .  S
C4578      H4583   1.083       .  S
N4579      H4599   1.046       .  S
N4579      H4600   1.045       .  S
C4581      C4584   1.397       .  A
C4581      C4588   1.404       .  A
N4582      H4597   1.046       .  S
N4582      H4598   1.045       .  S
C4584      C4585   1.409       .  A
C4584      H4589   1.084       .  S
C4585      C4586   1.425       .  A
C4585      N4590   1.433       .  S
C4586      C4587   1.417       .  A
C4587      C4588   1.411       .  A
C4587      H4591   1.078       .  S
C4588      N4592   1.436       .  S
N4590      H4593   1.046       .  S
N4590      H4594   1.045       .  S
N4592      H4595   1.044       .  S
N4592      H4596   1.045       .  S
C4601      C4602   1.411       .  A
C4601      C4606   1.405       .  A
C4602      C4603   1.410       .  A
C4602      N4607   1.437       .  S
C4603      C4604   1.406       .  A
C4603      H4608   1.084       .  S
C4604      C4605   1.410       .  A
C4604      C4609   1.488       .  S
C4605      C4606   1.403       .  A
C4605      N4610   1.439   1_455  S
C4606      H4611   1.082   1_455  S
N4607      H4627   1.045       .  S
N4607      H4628   1.046       .  S
C4609      C4612   1.407       .  A
C4609      C4616   1.411   1_455  A
N4610      H4625   1.046       .  S
N4610      H4626   1.046       .  S
C4612      C4613   1.408       .  A
C4612      H4617   1.083       .  S
C4613      C4614   1.407       .  A
C4613      N4618   1.436       .  S
C4614      C4615   1.403   1_455  A
C4615      C4616   1.404       .  A
C4615      H4619   1.084       .  S
C4616      N4620   1.438       .  S
N4618      H4621   1.046       .  S
N4618      H4622   1.043       .  S
N4620      H4623   1.046       .  S
N4620      H4624   1.046       .  S
C4629      C4630   1.412       .  A
C4629      C4634   1.403       .  A
C4630      C4631   1.408       .  A
C4630      N4635   1.432       .  S
C4631      C4632   1.406       .  A
C4631      H4636   1.083       .  S
C4632      C4633   1.416       .  A
C4632      C4637   1.500       .  S
C4633      C4634   1.410       .  A
C4633      N4638   1.438       .  S
C4634      H4639   1.084       .  S
N4635      H4655   1.045       .  S
N4635      H4656   1.045       .  S
C4637      C4640   1.402       .  A
C4637      C4644   1.418       .  A
N4638      H4653   1.045       .  S
N4638      H4654   1.046       .  S
C4640      C4641   1.402       .  A
C4640      H4645   1.084       .  S
C4641      C4642   1.421       .  A
C4641      N4646   1.438       .  S
C4642      C4643   1.407       .  A
C4643      C4644   1.407       .  A
C4643      H4647   1.083       .  S
C4644      N4648   1.432       .  S
N4646      H4649   1.044       .  S
N4646      H4650   1.042       .  S
N4648      H4651   1.043       .  S
N4648      H4652   1.045       .  S
C4657      C4658   1.412       .  A
C4657      C4662   1.404       .  A
C4658      C4659   1.402       .  A
C4658      N4663   1.433   1_544  S
C4659      C4660   1.403       .  A
C4659      H4664   1.084       .  S
C4660      C4661   1.418       .  A
C4660      C4665   1.499       .  S
C4661      C4662   1.413       .  A
C4661      N4666   1.437       .  S
C4662      H4667   1.083       .  S
N4663      H4683   1.046       .  S
N4663      H4684   1.045   1_556  S
C4665      C4668   1.404       .  A
C4665      C4672   1.416   1_554  A
N4666      H4681   1.046       .  S
N4666      H4682   1.046       .  S
C4668      C4669   1.410       .  A
C4668      H4673   1.083       .  S
C4669      C4670   1.415       .  A
C4669      N4674   1.438       .  S
C4670      C4671   1.403   1_554  A
C4671      C4672   1.410       .  A
C4671      H4675   1.084       .  S
C4672      N4676   1.438       .  S
N4674      H4677   1.044       .  S
N4674      H4678   1.045       .  S
N4676      H4679   1.045       .  S
N4676      H4680   1.046       .  S
C4685      C4686   1.412       .  A
C4685      C4690   1.404   1_545  A
C4686      C4687   1.415       .  A
C4686      N4691   1.436       .  S
C4687      C4688   1.407       .  A
C4687      H4692   1.084       .  S
C4688      C4689   1.411   1_545  A
C4688      C4693   1.492       .  S
C4689      C4690   1.407       .  A
C4689      N4694   1.440       .  S
C4690      H4695   1.084       .  S
N4691      H4711   1.045       .  S
N4691      H4712   1.045       .  S
C4693      C4696   1.400   1_545  A
C4693      C4700   1.415       .  A
N4694      H4709   1.045       .  S
N4694      H4710   1.043       .  S
C4696      C4697   1.407       .  A
C4696      H4701   1.084       .  S
C4697      C4698   1.413   1_565  A
C4697      N4702   1.438   1_455  S
C4698      C4699   1.404       .  A
C4699      C4700   1.414       .  A
C4699      H4703   1.083       .  S
C4700      N4704   1.438       .  S
N4702      H4705   1.045       .  S
N4702      H4706   1.043       .  S
N4704      H4707   1.045       .  S
N4704      H4708   1.043       .  S
C4713      C4714   1.413       .  A
C4713      C4718   1.403   1_455  A
C4714      C4715   1.405       .  A
C4714      N4719   1.433       .  S
C4715      C4716   1.405       .  A
C4715      H4720   1.083       .  S
C4716      C4717   1.420   1_455  A
C4716      C4721   1.505       .  S
C4717      C4718   1.413       .  A
C4717      N4722   1.438       .  S
C4718      H4723   1.084       .  S
N4719      H4739   1.045       .  S
N4719      H4740   1.045       .  S
C4721      C4724   1.405   1_455  A
C4721      C4728   1.419       .  A
N4722      H4737   1.046       .  S
N4722      H4738   1.046       .  S
C4724      C4725   1.402       .  A
C4724      H4729   1.083       .  S
C4725      C4726   1.419   1_655  A
C4725      N4730   1.440   1_554  S
C4726      C4727   1.402       .  A
C4727      C4728   1.412       .  A
C4727      H4731   1.084       .  S
C4728      N4732   1.437       .  S
N4730      H4733   1.044       .  S
N4730      H4734   1.042       .  S
N4732      H4735   1.046       .  S
N4732      H4736   1.046       .  S
C4741      C4742   1.409       .  A
C4741      C4746   1.405   1_556  A
C4742      C4743   1.409       .  A
C4742      N4747   1.429       .  S
C4743      C4744   1.408       .  A
C4743      H4748   1.084       .  S
C4744      C4745   1.412   1_556  A
C4744      C4749   1.499       .  S
C4745      C4746   1.408       .  A
C4745      N4750   1.438       .  S
C4746      H4751   1.084       .  S
N4747      H4767   1.045       .  S
N4747      H4768   1.045       .  S
C4749      C4752   1.408       .  A
C4749      C4756   1.411       .  A
N4750      H4765   1.045       .  S
N4750      H4766   1.046       .  S
C4752      C4753   1.414       .  A
C4752      H4757   1.083       .  S
C4753      C4754   1.415       .  A
C4753      N4758   1.437       .  S
C4754      C4755   1.408       .  A
C4755      C4756   1.406       .  A
C4755      H4759   1.084       .  S
C4756      N4760   1.439       .  S
N4758      H4761   1.046       .  S
N4758      H4762   1.045   1_556  S
N4760      H4763   1.046       .  S
N4760      H4764   1.046   1_556  S
C4769      C4770   1.422   1_565  A
C4769      C4774   1.405       .  A
C4770      C4771   1.405       .  A
C4770      N4775   1.440       .  S
C4771      C4772   1.401   1_545  A
C4771      H4776   1.084       .  S
C4772      C4773   1.413       .  A
C4772      C4777   1.496       .  S
C4773      C4774   1.412       .  A
C4773      N4778   1.437       .  S
C4774      H4779   1.083       .  S
N4775      H4795   1.042   1_655  S
N4775      H4796   1.045   1_655  S
C4777      C4780   1.399       .  A
C4777      C4784   1.415       .  A
N4778      H4793   1.046       .  S
N4778      H4794   1.046       .  S
C4780      C4781   1.403       .  A
C4780      H4785   1.084       .  S
C4781      C4782   1.419       .  A
C4781      N4786   1.433       .  S
C4782      C4783   1.408       .  A
C4783      C4784   1.419       .  A
C4783      H4787   1.082       .  S
C4784      N4788   1.437       .  S
N4786      H4789   1.045       .  S
N4786      H4790   1.046   1_565  S
N4788      H4791   1.046       .  S
N4788      H4792   1.046       .  S
C4797      C4798   1.417       .  A
C4797      C4802   1.408       .  A
C4798      C4799   1.416       .  A
C4798      N4803   1.437       .  S
C4799      C4800   1.410       .  A
C4799      H4804   1.083       .  S
C4800      C4801   1.412       .  A
C4800      C4805   1.504       .  S
C4801      C4802   1.404       .  A
C4801      N4806   1.439       .  S
C4802      H4807   1.080       .  S
N4803      H4823   1.045   1_655  S
N4803      H4824   1.045       .  S
C4805      C4808   1.409       .  A
C4805      C4812   1.411   1_655  A
N4806      H4821   1.045       .  S
N4806      H4822   1.046       .  S
C4808      C4809   1.407       .  A
C4808      H4813   1.083       .  S
C4809      C4810   1.419       .  A
C4809      N4814   1.436       .  S
C4810      C4811   1.406   1_655  A
C4811      C4812   1.405       .  A
C4811      H4815   1.084       .  S
C4812      N4816   1.432       .  S
N4814      H4817   1.046       .  S
N4814      H4818   1.041       .  S
N4816      H4819   1.046       .  S
N4816      H4820   1.046       .  S
