geometry optimzed in LAMMPS
_audit_creation_date              2020-11-30 
_audit_creation_method            'lammps2cif' 
_symmetry_space_group_name_H-M    'P1' 
_symmetry_Int_Tables_number       1 
_symmetry_cell_setting            triclinic 
loop_ 
_symmetry_equiv_pos_as_xyz 
  x,y,z 
_cell_length_a                    60.02370088 
_cell_length_b                    60.38291943795701 
_cell_length_c                    98.89578620009209 
_cell_angle_alpha                 89.92501708748871 
_cell_angle_beta                  90.03862155290622 
_cell_angle_gamma                 123.31080855452744 
loop_ 
_atom_site_label 
_atom_site_type_symbol 
_atom_site_fract_x 
_atom_site_fract_y 
_atom_site_fract_z 
_atom_site_charge 
N1          N  0.36594724  0.28219243  0.67246599    -0.26900
N2          N  0.39003855  0.28740369  0.67008071    -0.34800
C3          C  0.39616928  0.27561084  0.67948041     0.01400
C4          C  0.37499968  0.26212813  0.68833126     0.07400
C5          C  0.35598832  0.26656377  0.68353384    -0.05700
H6          H  0.41502121  0.27723311  0.67995658     0.08100
H7          H  0.33696219  0.26005265  0.68810172     0.09300
Cu8        Cu  0.41534229  0.31198417  0.65508277     0.44200
Cu9        Cu  0.34993037  0.29939144  0.66106437     0.42000
Cu10       Cu  0.39736004  0.34896865  0.63607515     0.43900
N11         N  0.44023485  0.33931161  0.64084254    -0.34300
N12         N  0.43384614  0.35365953  0.63383251    -0.28600
C13         C  0.45405663  0.36982713  0.62546052    -0.04700
C14         C  0.47394076  0.36515133  0.62734617     0.07500
C15         C  0.46459071  0.34573396  0.63713860     0.01300
H16         H  0.45407497  0.38353582  0.61839947     0.09000
H17         H  0.47465531  0.33683904  0.64120155     0.08100
N18         N  0.35942947  0.33995806  0.63975020    -0.35800
N19         N  0.34216749  0.32229191  0.64853022    -0.27900
C20         C  0.31949289  0.32182241  0.64782853    -0.03200
C21         C  0.32267716  0.34002068  0.63811846     0.05400
C22         C  0.34829604  0.35104987  0.63327856     0.03500
H23         H  0.30214765  0.30920402  0.65401850     0.08600
H24         H  0.35809543  0.36565424  0.62533653     0.07500
N25         N  0.91292528  0.29895482  0.67169671    -0.26900
N26         N  0.89076090  0.29709285  0.66808877    -0.34800
C27         C  0.87154234  0.28182713  0.67706850     0.01400
C28         C  0.88211518  0.27365529  0.68681341     0.07400
C29         C  0.90837202  0.28474912  0.68303101    -0.05700
H30         H  0.85131229  0.27689120  0.67642952     0.08100
H31         H  0.92316710  0.28288897  0.68819041     0.09300
Cu32       Cu  0.88754850  0.31574846  0.65136996     0.44200
Cu33       Cu  0.94791167  0.32003273  0.66081018     0.42000
Cu34       Cu  0.94427944  0.35009365  0.62950957     0.43900
N35         N  0.89015639  0.33921093  0.63542514    -0.34300
N36         N  0.91105562  0.35203584  0.62732883    -0.28600
C37         C  0.90705175  0.36640323  0.61842176    -0.04700
C38         C  0.88251040  0.36239969  0.62116992     0.07500
C39         C  0.87229890  0.34502640  0.63194059     0.01300
H40         H  0.92100760  0.37895723  0.61064096     0.09000
H41         H  0.85341663  0.33739976  0.63696262     0.08100
N42         N  0.97573214  0.34678973  0.63484019    -0.35800
N43         N  0.97754769  0.33676922  0.64636612    -0.27900
C44         C  0.99990963  0.33669558  0.64628026    -0.03200
C45         C  0.01267717  0.34699010  0.63405212     0.05400
C46         C  0.99679594  0.35321904  0.62708916     0.03500
H47         H  0.00549840  0.32826855  0.65419303     0.08600
H48         H  0.99996709  0.36131415  0.61698580     0.07500
N49         N  0.22989070  0.37125622  0.59781279    -0.26900
N50         N  0.21268938  0.36018607  0.60790695    -0.34800
C51         C  0.22308082  0.35276152  0.61755883     0.01400
C52         C  0.24817486  0.35987730  0.61344504     0.07400
C53         C  0.25178971  0.37143054  0.60086324    -0.05700
H54         H  0.21337554  0.34357151  0.62703841     0.08100
H55         H  0.26899469  0.37927565  0.59433710     0.09300
Cu56       Cu  0.17688405  0.35747426  0.60896583     0.44200
Cu57       Cu  0.22392138  0.38648380  0.58038896     0.42000
Cu58       Cu  0.16532449  0.38784149  0.58100052     0.43900
N59         N  0.14446855  0.36080296  0.60786716    -0.34300
N60         N  0.14044427  0.37189287  0.59745208    -0.28600
C61         C  0.11791614  0.37104361  0.59939833    -0.04700
C62         C  0.10710096  0.35877916  0.61164893     0.07500
C63         C  0.12458507  0.35274200  0.61684656     0.01300
H64         H  0.11023674  0.37912745  0.59244051     0.09000
H65         H  0.12280615  0.34289798  0.62631447     0.08100
N66         N  0.19169472  0.40226609  0.56510222    -0.35800
N67         N  0.21333354  0.40168155  0.56468786    -0.27900
C68         C  0.22602178  0.41230852  0.55292062    -0.03200
C69         C  0.21149981  0.41982236  0.54556138     0.05400
C70         C  0.18993913  0.41324603  0.55369591     0.03500
H71         H  0.24427606  0.41411756  0.54990998     0.08600
H72         H  0.17423144  0.41646973  0.55167456     0.07500
N73         N  0.96991726  0.60353198  0.65502277    -0.26900
N74         N  0.96939865  0.58758549  0.64572871    -0.34800
C75         C  0.99184979  0.60061790  0.63842637     0.01400
C76         C  0.00786047  0.62621283  0.64334933     0.07400
C77         C  0.99312912  0.62734375  0.65389517    -0.05700
H78         H  0.99537937  0.59204091  0.62978577     0.08100
H79         H  0.99861438  0.64428519  0.66015341     0.09300
Cu80       Cu  0.93811270  0.54918840  0.64234114     0.44200
Cu81       Cu  0.93768576  0.59166032  0.66791442     0.42000
Cu82       Cu  0.87880579  0.52387814  0.66104373     0.43900
N83         N  0.90466172  0.51209640  0.63878581    -0.34300
N84         N  0.88210618  0.50258248  0.64545694    -0.28600
C85         C  0.86360596  0.47870559  0.64026783    -0.04700
C86         C  0.87539326  0.47305550  0.62996268     0.07500
C87         C  0.90136028  0.49464181  0.62928896     0.01300
H88         H  0.84310251  0.46654706  0.64360608     0.09000
H89         H  0.91652070  0.49777091  0.62217518     0.08100
N90         N  0.88077530  0.54925602  0.67600566    -0.35800
N91         N  0.90155788  0.57355638  0.67838571    -0.27900
C92         C  0.89534939  0.58424067  0.68847385    -0.03200
C93         C  0.86948296  0.56581281  0.69270194     0.05400
C94         C  0.86101644  0.54387409  0.68458527     0.03500
H95         H  0.90887472  0.60388707  0.69251997     0.08600
H96         H  0.84164903  0.52542308  0.68471391     0.07500
N97         N  0.36370204  0.98890380  0.65618296    -0.26900
N98         N  0.38086388  0.98914401  0.64772913    -0.34800
C99         C  0.36836898  0.96684590  0.64038031     0.01400
C100        C  0.34194669  0.95162037  0.64434997     0.07400
C101        C  0.33969502  0.96623846  0.65443965    -0.05700
H102        H  0.37783619  0.96237330  0.63251861     0.08100
H103        H  0.32180236  0.96136670  0.65975138     0.09300
Cu104      Cu  0.41979486  0.02047293  0.64526098     0.44200
Cu105      Cu  0.37387599  0.02022718  0.66907126     0.42000
Cu106      Cu  0.44167320  0.07895294  0.66409242     0.43900
N107        N  0.45566776  0.05555639  0.64164615    -0.34300
N108        N  0.46363927  0.07768475  0.64828138    -0.28600
C109        C  0.48682119  0.09742136  0.64293052    -0.04700
C110        C  0.49361354  0.08693912  0.63250304     0.07500
C111        C  0.47351624  0.06040985  0.63198861     0.01300
H112        H  0.49783207  0.11778285  0.64633688     0.09000
H113        H  0.47171564  0.04583251  0.62493252     0.08100
N114        N  0.41565891  0.07513265  0.67911575    -0.35800
N115        N  0.39104231  0.05431921  0.68078033    -0.27900
C116        C  0.37961214  0.05914414  0.69106665    -0.03200
C117        C  0.39794198  0.08418553  0.69614603     0.05400
C118        C  0.42057166  0.09359048  0.68834173     0.03500
H119        H  0.35948773  0.04530891  0.69458074     0.08600
H120        H  0.43905563  0.11284320  0.68900868     0.07500
N121        N  0.13891520  0.73085292  0.60384375    -0.26900
N122        N  0.14563419  0.74685730  0.61433926    -0.34800
C123        C  0.12603314  0.73509944  0.62363429     0.01400
C124        C  0.10614472  0.71044769  0.61875365     0.07400
C125        C  0.11506532  0.70854961  0.60618200    -0.05700
H126        H  0.12685487  0.74337914  0.63345469     0.08100
H127        H  0.10521137  0.69191291  0.59930336     0.09300
Cu128      Cu  0.18225103  0.78269938  0.61597079     0.44200
Cu129      Cu  0.16270507  0.73823069  0.58711831     0.42000
Cu130      Cu  0.22859145  0.79513938  0.58842552     0.43900
N131        N  0.22135110  0.81528732  0.61501170    -0.34300
N132        N  0.23802539  0.81919734  0.60517233    -0.28600
C133        C  0.26170963  0.84164324  0.60756031    -0.04700
C134        C  0.26001539  0.85286839  0.61942353     0.07500
C135        C  0.23405295  0.83538168  0.62389388     0.01300
H136        H  0.27878550  0.84885437  0.60104586     0.09000
H137        H  0.22482810  0.83722898  0.63283248     0.08100
N138        N  0.21472887  0.76891669  0.57238760    -0.35800
N139        N  0.19016887  0.74775498  0.57190697    -0.27900
C140        C  0.18702941  0.73426903  0.56049818    -0.03200
C141        C  0.21083806  0.74768891  0.55335264     0.05400
C142        C  0.22795080  0.76958408  0.56127009     0.03500
H143        H  0.16888418  0.71573946  0.55786441     0.08600
H144        H  0.24848551  0.78497661  0.55912015     0.07500
N145        N  0.58168647  0.15402799  0.58506884    -0.36300
N146        N  0.53949189  0.13377296  0.60549256    -0.56800
N147        N  0.55555545  0.09943688  0.61595889    -0.36200
N148        N  0.59951893  0.12199271  0.59674861    -0.56800
C149        C  0.57366610  0.17087434  0.58339276     0.27300
C150        C  0.60566399  0.16503525  0.57891815     0.27300
C151        C  0.53681070  0.09490671  0.62514703     0.27300
C152        C  0.56995005  0.09047911  0.62132556     0.27300
C153        C  0.53291383  0.14796814  0.59789148     0.36000
C154        C  0.51847823  0.11845192  0.61372993     0.36000
C155        C  0.61690737  0.13268130  0.58633088     0.36000
C156        C  0.60332963  0.10416583  0.60271808     0.36000
C157        C  0.59243283  0.19253562  0.57581620    -0.21500
C158        C  0.61263232  0.18891806  0.57303204    -0.21500
C159        C  0.53887819  0.08238746  0.63637293    -0.21500
C160        C  0.55977488  0.07964035  0.63398921    -0.21500
C161        C  0.50787203  0.14201781  0.60149147    -0.22600
C162        C  0.49869220  0.12325659  0.61149779    -0.22600
C163        C  0.63176647  0.12148115  0.58561683    -0.22600
C164        C  0.62321771  0.10347238  0.59600209    -0.22600
C165        C  0.54949626  0.16695352  0.58808057    -0.17900
C166        C  0.62145733  0.15420834  0.57832019    -0.17900
C167        C  0.59122632  0.09068080  0.61495262    -0.17900
C168        C  0.51716502  0.10075224  0.62353428    -0.17900
H169        H  0.59177086  0.20935788  0.57270574     0.15000
H170        H  0.63051384  0.20252050  0.56737703     0.15000
H171        H  0.52662469  0.07593423  0.64538081     0.15000
H172        H  0.56643252  0.07038521  0.64080212     0.15000
H173        H  0.49723567  0.15022611  0.59730315     0.13300
H174        H  0.47961354  0.11420486  0.61653606     0.13300
H175        H  0.64765946  0.12634396  0.57859192     0.13300
H176        H  0.63132344  0.09181457  0.59853407     0.13300
H177        H  0.57027951  0.13501616  0.58909994     0.26500
H178        H  0.55659742  0.10578034  0.60606718     0.26500
N179        N  0.52392188  0.19955794  0.56867800    -0.26900
N180        N  0.53084661  0.21358678  0.57995574    -0.34800
C181        C  0.54126948  0.20438260  0.58859620     0.01400
C182        C  0.54102995  0.18379628  0.58234609     0.07400
C183        C  0.52995621  0.18124756  0.56976395    -0.05700
H184        H  0.54852586  0.21211904  0.59863294     0.08100
H185        H  0.52618608  0.16689695  0.56204941     0.09300
Cu186      Cu  0.52686801  0.24528140  0.58273581     0.44200
Cu187      Cu  0.50620194  0.20538000  0.55234997     0.42000
Cu188      Cu  0.50301447  0.26284998  0.55328855     0.43900
N189        N  0.52516873  0.27861070  0.58158518    -0.34300
N190        N  0.51692503  0.28512065  0.57078856    -0.28600
C191        C  0.52010853  0.30866590  0.57291377    -0.04700
C192        C  0.53079372  0.31729377  0.58563672     0.07500
C193        C  0.53380656  0.29788314  0.59088729     0.01300
H194        H  0.51567216  0.31905648  0.56559617     0.09000
H195        H  0.54252089  0.29820414  0.60052321     0.08100
N196        N  0.48949765  0.23697823  0.53710939    -0.35800
N197        N  0.49033784  0.21559851  0.53687854    -0.27900
C198        C  0.48037359  0.20296369  0.52507311    -0.03200
C199        C  0.47308859  0.21723069  0.51737043     0.05400
C200        C  0.47905474  0.23862167  0.52542069     0.03500
H201        H  0.47858124  0.18469368  0.52242627     0.08600
H202        H  0.47654265  0.25455873  0.52289764     0.07500
N203        N  0.57789060  0.38967655  0.59321385    -0.36300
N204        N  0.59603136  0.44106969  0.60508458    -0.56800
N205        N  0.54321087  0.41910112  0.61664959    -0.36200
N206        N  0.52602284  0.36705233  0.60580649    -0.56800
C207        C  0.60415208  0.40275247  0.59024585     0.27300
C208        C  0.56697783  0.36376076  0.59041892     0.27300
C209        C  0.55696581  0.44276080  0.62306585     0.27300
C210        C  0.51982293  0.40376066  0.62328594     0.27300
C211        C  0.61807900  0.44817241  0.59784552     0.36000
C212        C  0.59987140  0.46360593  0.61025739     0.36000
C213        C  0.52057909  0.34583613  0.59841288     0.36000
C214        C  0.50260031  0.36111512  0.61105254     0.36000
C215        C  0.60985746  0.38494786  0.58520429    -0.21500
C216        C  0.58645311  0.36040709  0.58531524    -0.21500
C217        C  0.54170024  0.44267328  0.63363395    -0.21500
C218        C  0.51835971  0.41808485  0.63379647    -0.21500
C219        C  0.63615338  0.47536015  0.59850513    -0.22600
C220        C  0.62467639  0.48513117  0.60639865    -0.22600
C221        C  0.49361962  0.32621155  0.59909340    -0.22600
C222        C  0.48222064  0.33590196  0.60708655    -0.22600
C223        C  0.62294074  0.43042115  0.59134175    -0.17900
C224        C  0.53973515  0.34321735  0.59168811    -0.17900
C225        C  0.49949148  0.37733851  0.62005839    -0.17900
C226        C  0.58250982  0.46475676  0.61945040    -0.17900
H227        H  0.62885433  0.38911319  0.58168166     0.15000
H228        H  0.58410036  0.34221965  0.58190055     0.15000
H229        H  0.54674679  0.45861197  0.64057201     0.15000
H230        H  0.50220038  0.41150041  0.64091690     0.15000
H231        H  0.65580012  0.48691145  0.59400542     0.13300
H232        H  0.63388944  0.50568955  0.60919585     0.13300
H233        H  0.48325760  0.30681693  0.59443754     0.13300
H234        H  0.46132790  0.32546095  0.60975461     0.13300
H235        H  0.56753839  0.39830130  0.59564545     0.26500
H236        H  0.54836881  0.41452634  0.60755980     0.26500
N237        N  0.76135801  0.43912156  0.56445306    -0.26900
N238        N  0.75127607  0.43789725  0.57653771    -0.34800
C239        C  0.76284161  0.43077965  0.58566966     0.01400
C240        C  0.78085409  0.42725202  0.57896001     0.07400
C241        C  0.77940314  0.43262197  0.56554757    -0.05700
H242        H  0.75802154  0.42774407  0.59632946     0.08100
H243        H  0.79045548  0.43165562  0.55718748     0.09300
Cu244      Cu  0.72080550  0.44382214  0.58005346     0.44200
Cu245      Cu  0.75014418  0.44895773  0.54687232     0.42000
Cu246      Cu  0.69621043  0.45802869  0.55037552     0.43900
N247        N  0.68769885  0.44639133  0.58007543    -0.34300
N248        N  0.67889770  0.45166464  0.56907837    -0.28600
C249        C  0.65554123  0.44878549  0.57177073    -0.04700
C250        C  0.64932869  0.44139802  0.58511659     0.07500
C251        C  0.67003088  0.43995091  0.59011961     0.01300
H252        H  0.64304659  0.44996541  0.56430406     0.09000
H253        H  0.67109206  0.43273889  0.59996083     0.08100
N254        N  0.71519684  0.46234360  0.53237987    -0.35800
N255        N  0.73516363  0.45920026  0.53100625    -0.27900
C256        C  0.74380576  0.46457031  0.51815966    -0.03200
C257        C  0.72853991  0.47154239  0.51114515     0.05400
C258        C  0.71045801  0.46969277  0.52049510     0.03500
H259        H  0.76055830  0.46431200  0.51436100     0.08600
H260        H  0.69505820  0.47354137  0.51892156     0.07500
N261        N  0.67393720  0.19062078  0.55327342    -0.26900
N262        N  0.68711029  0.20120416  0.56466538    -0.34800
C263        C  0.67091348  0.18829939  0.57518673     0.01400
C264        C  0.64630305  0.16867058  0.57024756     0.07400
C265        C  0.64878800  0.17075981  0.55629615    -0.05700
H266        H  0.67597508  0.19423114  0.58564035     0.08100
H267        H  0.63310042  0.15976065  0.54894063     0.09300
Cu268      Cu  0.72436875  0.23610123  0.56573686     0.44200
Cu269      Cu  0.69072342  0.20568357  0.53435150     0.42000
Cu270      Cu  0.75426369  0.27065847  0.53495174     0.43900
N271        N  0.75691572  0.27489731  0.56520960    -0.34300
N272        N  0.76742183  0.28814547  0.55383968    -0.28600
C273        C  0.78606395  0.31359898  0.55683209    -0.04700
C274        C  0.78741374  0.31630146  0.57075738     0.07500
C275        C  0.76864428  0.29143389  0.57574385     0.01300
H276        H  0.79714159  0.32913623  0.54944159     0.09000
H277        H  0.76293833  0.28609966  0.58620792     0.08100
N278        N  0.73783128  0.24735592  0.51777645    -0.35800
N279        N  0.71480969  0.22410970  0.51750431    -0.27900
C280        C  0.71086846  0.21394242  0.50497951    -0.03200
C281        C  0.73250796  0.23146256  0.49697024     0.05400
C282        C  0.74913009  0.25249046  0.50545863     0.03500
H283        H  0.69396901  0.19465336  0.50208619     0.08600
H284        H  0.76817872  0.27021568  0.50298002     0.07500
N285        N  0.80656226  0.38332428  0.58355337    -0.36300
N286        N  0.83025039  0.42805096  0.60238468    -0.56800
N287        N  0.86247639  0.41045842  0.61405789    -0.36200
N288        N  0.83627217  0.36401088  0.59643874    -0.56800
C289        C  0.79106809  0.39283110  0.58127145     0.27300
C290        C  0.79351536  0.35842127  0.57847242     0.27300
C291        C  0.86760445  0.42982699  0.62290943     0.27300
C292        C  0.87070576  0.39581859  0.61985609     0.27300
C293        C  0.81747141  0.43529808  0.59406027     0.36000
C294        C  0.84654202  0.44938002  0.61018024     0.36000
C295        C  0.82393447  0.34525413  0.58675859     0.36000
C296        C  0.85404217  0.36004789  0.60243589     0.36000
C297        C  0.76817562  0.37396550  0.57443990    -0.21500
C298        C  0.76970458  0.35227760  0.57268551    -0.21500
C299        C  0.87977474  0.42783310  0.63433887    -0.21500
C300        C  0.88175539  0.40642071  0.63241627    -0.21500
C301        C  0.82559605  0.46127514  0.59661197    -0.22600
C302        C  0.84398852  0.47018427  0.60684385    -0.22600
C303        C  0.83384046  0.32924342  0.58662947    -0.22600
C304        C  0.85290862  0.33860663  0.59654812    -0.22600
C305        C  0.79728334  0.41831890  0.58481944    -0.17900
C306        C  0.80257115  0.34115695  0.57867499    -0.17900
C307        C  0.86931448  0.37367223  0.61400235    -0.17900
C308        C  0.86266386  0.44993653  0.62074439    -0.17900
H309        H  0.75189198  0.37553163  0.57114776     0.15000
H310        H  0.75480446  0.33397334  0.56778713     0.15000
H311        H  0.88656099  0.44050842  0.64316002     0.15000
H312        H  0.89040041  0.39950100  0.63949584     0.15000
H313        H  0.81880451  0.47257146  0.59170298     0.13300
H314        H  0.85417969  0.48969580  0.61136272     0.13300
H315        H  0.82765689  0.31229331  0.58021787     0.13300
H316        H  0.86416399  0.33014346  0.59931891     0.13300
H317        H  0.82594820  0.39415173  0.58720357     0.26500
H318        H  0.85616372  0.40889244  0.60413986     0.26500
N319        N  0.67479895  0.05237496  0.67082308    -0.26900
N320        N  0.66997141  0.07112092  0.66935758    -0.34800
C321        C  0.68172742  0.08865030  0.67949801     0.01400
C322        C  0.69458603  0.08060532  0.68785954     0.07400
C323        C  0.68987714  0.05757245  0.68194530    -0.05700
H324        H  0.68127526  0.10622599  0.68049518     0.08100
H325        H  0.69653154  0.04522522  0.68556880     0.09300
Cu326      Cu  0.64762951  0.07229249  0.65367510     0.44200
Cu327      Cu  0.65960241  0.02015989  0.65782327     0.42000
Cu328      Cu  0.61780916  0.01799151  0.63019299     0.43900
N329        N  0.62485712  0.06983408  0.63724446    -0.34300
N330        N  0.61388633  0.04995551  0.62854517    -0.28600
C331        C  0.60034873  0.05422962  0.61916929    -0.04700
C332        C  0.60301164  0.07794358  0.62216771     0.07500
C333        C  0.61864074  0.08728642  0.63366129     0.01300
H334        H  0.58926814  0.04101103  0.61087390     0.09000
H335        H  0.62487585  0.10536427  0.63907048     0.08100
N336        N  0.62415908  0.98817502  0.63435289    -0.35800
N337        N  0.63939366  0.98891706  0.64423886    -0.27900
C338        C  0.63884735  0.96632699  0.64407701    -0.03200
C339        C  0.62245903  0.95053664  0.63356808     0.05400
C340        C  0.61353648  0.96515257  0.62767449     0.03500
H341        H  0.64926256  0.96169457  0.65128461     0.08600
H342        H  0.60050345  0.95967763  0.61901905     0.07500
N343        N  0.66431263  0.59230169  0.67520398    -0.26900
N344        N  0.65302792  0.56638046  0.67510972    -0.34800
C345        C  0.66223746  0.55949620  0.68556083     0.01400
C346        C  0.68047881  0.58216263  0.69260147     0.07400
C347        C  0.68126829  0.60267198  0.68574855    -0.05700
H348        H  0.65709278  0.53955528  0.68743234     0.08100
H349        H  0.69352333  0.62359141  0.68806666     0.09300
Cu350      Cu  0.62871964  0.54163876  0.65986028     0.44200
Cu351      Cu  0.65712929  0.61184942  0.66024599     0.42000
Cu352      Cu  0.62076086  0.57101816  0.63056342     0.43900
N353        N  0.61061688  0.52075781  0.64242339    -0.34300
N354        N  0.60780204  0.53154219  0.63147136    -0.28600
C355        C  0.59680777  0.51322651  0.62161522    -0.04700
C356        C  0.59264484  0.48990884  0.62670044     0.07500
C357        C  0.60166055  0.49535965  0.63987307     0.01300
H358        H  0.59279412  0.51678644  0.61145233     0.09000
H359        H  0.60228667  0.48205038  0.64696206     0.08100
N360        N  0.63492063  0.61067909  0.63256904    -0.35800
N361        N  0.64732245  0.62532972  0.64334627    -0.27900
C362        C  0.65207283  0.64963495  0.64143961    -0.03200
C363        C  0.64253418  0.65033968  0.62879970     0.05400
C364        C  0.63175895  0.62529205  0.62350045     0.03500
H365        H  0.66158914  0.66553402  0.64875600     0.08600
H366        H  0.62134397  0.61780881  0.61398638     0.07500
N367        N  0.61276567  0.74551666  0.59039185    -0.26900
N368        N  0.61969903  0.75981024  0.60156681    -0.34800
C369        C  0.62916261  0.75020121  0.61052851     0.01400
C370        C  0.62795310  0.72863373  0.60478227     0.07400
C371        C  0.61760477  0.72642799  0.59195865    -0.05700
H372        H  0.63600297  0.75824647  0.62054579     0.08100
H373        H  0.61276906  0.71132641  0.58450253     0.09300
Cu374      Cu  0.61405616  0.79031463  0.60483316     0.44200
Cu375      Cu  0.59494269  0.75079425  0.57389804     0.42000
Cu376      Cu  0.57955343  0.80016481  0.57825581     0.43900
N377        N  0.60442965  0.81842231  0.60577549    -0.34300
N378        N  0.59143835  0.82164036  0.59601112    -0.28600
C379        C  0.58881470  0.84167505  0.59923854    -0.04700
C380        C  0.60072345  0.85169825  0.61168871     0.07500
C381        C  0.61051880  0.83646887  0.61550671     0.01300
H382        H  0.58002709  0.84915106  0.59263348     0.09000
H383        H  0.62167630  0.83862446  0.62455559     0.08100
N384        N  0.56986758  0.77712530  0.56112675    -0.35800
N385        N  0.57543964  0.75897752  0.55949595    -0.27900
C386        C  0.56615643  0.74728486  0.54742137    -0.03200
C387        C  0.55407005  0.75860568  0.54110985     0.05400
C388        C  0.55700665  0.77759885  0.55013180     0.03500
H389        H  0.56779619  0.73143147  0.54365147     0.08600
H390        H  0.55072069  0.79115204  0.54884713     0.07500
O391        O  0.78535403  0.55361619  0.73876418    -0.72600
O392        O  0.74123517  0.55859899  0.76736052    -0.73600
O393        O  0.74077978  0.55846652  0.73899784    -0.62200
O394        O  0.78563803  0.55388471  0.76735448    -0.70600
O395        O  0.81306688  0.59759243  0.76724644    -0.70100
O396        O  0.76778467  0.60226327  0.73881898    -0.61400
O397        O  0.76836910  0.60237994  0.76758138    -0.73900
O398        O  0.81255726  0.59734704  0.73844007    -0.72700
Cu399      Cu  0.76236322  0.55467828  0.75310950     1.04600
Cu400      Cu  0.79144437  0.60146132  0.75300554     1.04300
C401        C  0.80606617  0.57458288  0.73409747     0.93600
C402        C  0.74750587  0.58109291  0.77192646     0.92800
C403        C  0.74679628  0.58100250  0.73458476     0.84900
C404        C  0.80645172  0.57495348  0.77184435     0.91200
O405        O  0.78266560  0.13962778  0.76702182    -0.72600
O406        O  0.82904086  0.18837380  0.73676963    -0.73600
O407        O  0.83176005  0.19027358  0.76560259    -0.62200
O408        O  0.78008518  0.13787470  0.73793391    -0.70600
O409        O  0.75801582  0.15756269  0.73866769    -0.70100
O410        O  0.80927915  0.20956761  0.76577327    -0.61400
O411        O  0.80627672  0.20735708  0.73739454    -0.73900
O412        O  0.76079133  0.15953785  0.76724477    -0.72700
Cu413      Cu  0.80667518  0.16327466  0.75184141     1.04600
Cu414      Cu  0.78284668  0.18410041  0.75229836     1.04300
C415        C  0.76446069  0.14210446  0.77199311     0.93600
C416        C  0.82472851  0.20555991  0.73226303     0.92800
C417        C  0.82869200  0.20835620  0.76999294     0.84900
C418        C  0.76108474  0.13987045  0.73372916     0.91200
O419        O  0.40605016  0.16974674  0.76890157    -0.72600
O420        O  0.40070593  0.21143401  0.73924690    -0.73600
O421        O  0.39987466  0.21276220  0.76780810    -0.62200
O422        O  0.40701389  0.16823480  0.74054387    -0.70600
O423        O  0.36309735  0.14043093  0.74008631    -0.70100
O424        O  0.35597542  0.18480163  0.76796315    -0.61400
O425        O  0.35677036  0.18398345  0.73902047    -0.73900
O426        O  0.36222509  0.14139748  0.76872907    -0.72700
Cu427      Cu  0.40486257  0.19152731  0.75411790     1.04600
Cu428      Cu  0.35792926  0.16169250  0.75392162     1.04300
C429        C  0.38516025  0.14884757  0.77345423     0.93600
C430        C  0.37804150  0.20449603  0.73438364     0.92800
C431        C  0.37701983  0.20578807  0.77239509     0.84900
C432        C  0.38626062  0.14703893  0.73612739     0.91200
N433        N  0.36383337  0.27947250  0.83566774    -0.26900
N434        N  0.39011569  0.29246627  0.83519699    -0.34800
C435        C  0.39727492  0.28430371  0.82442302     0.01400
C436        C  0.37449975  0.26514305  0.81765710     0.07400
C437        C  0.35359163  0.26261521  0.82511597    -0.05700
H438        H  0.41769523  0.29133606  0.82197763     0.08100
H439        H  0.33249817  0.24963429  0.82307574     0.09300
Cu440      Cu  0.41591349  0.31941686  0.84948439     0.44200
Cu441      Cu  0.34343709  0.28494955  0.85095326     0.42000
Cu442      Cu  0.38635129  0.32340652  0.87945571     0.43900
N443        N  0.43813754  0.34088071  0.86613173    -0.34300
N444        N  0.42707450  0.34162975  0.87751029    -0.28600
C445        C  0.44615980  0.35465933  0.88693232    -0.04700
C446        C  0.47038076  0.36258553  0.88110496     0.07500
C447        C  0.46458882  0.35345928  0.86794623     0.01300
H448        H  0.44255207  0.35713148  0.89736670     0.09000
H449        H  0.47835440  0.35450879  0.86051269     0.08100
N450        N  0.34608822  0.30842445  0.87829815    -0.35800
N451        N  0.33044714  0.29514207  0.86795073    -0.27900
C452        C  0.30610088  0.29042345  0.87032675    -0.03200
C453        C  0.30645031  0.30134644  0.88276965     0.05400
C454        C  0.33221062  0.31234438  0.88750676     0.03500
H455        H  0.28958806  0.28030782  0.86333168     0.08600
H456        H  0.34067615  0.32258039  0.89693094     0.07500
N457        N  0.91992213  0.29645620  0.83099130    -0.26900
N458        N  0.90137472  0.30165308  0.83244045    -0.34800
C459        C  0.88447742  0.29141230  0.82195140     0.01400
C460        C  0.89276261  0.27918214  0.81334954     0.07400
C461        C  0.91534359  0.28277272  0.81947108    -0.05700
H462        H  0.86678274  0.29186446  0.82109680     0.08100
H463        H  0.92728069  0.27550420  0.81600742     0.09300
Cu464      Cu  0.89878264  0.32133123  0.84878717     0.44200
Cu465      Cu  0.94936037  0.30686379  0.84524833     0.42000
Cu466      Cu  0.94989206  0.34575338  0.87387625     0.43900
N467        N  0.90029409  0.34276263  0.86539254    -0.34300
N468        N  0.91929368  0.35224662  0.87463313    -0.28600
C469        C  0.91455835  0.36528831  0.88404570    -0.04700
C470        C  0.89149292  0.36386561  0.88046183     0.07500
C471        C  0.88295858  0.34938680  0.86863231     0.01300
H472        H  0.92678330  0.37483092  0.89288255     0.09000
H473        H  0.86538706  0.34399531  0.86282767     0.08100
N474        N  0.97663696  0.33438041  0.87131790    -0.35800
N475        N  0.97619167  0.31997831  0.86112855    -0.27900
C476        C  0.99569894  0.31560682  0.86286549    -0.03200
C477        C  0.00929728  0.32806337  0.87465324     0.05400
C478        C  0.99651882  0.33963931  0.87975657     0.03500
H479        H  0.99977181  0.30435287  0.85597142     0.08600
H480        H  0.00078831  0.35051387  0.88910998     0.07500
N481        N  0.19819598  0.31109317  0.92321159    -0.26900
N482        N  0.18539751  0.30568934  0.91155243    -0.34800
C483        C  0.19824043  0.30037964  0.90226659     0.01400
C484        C  0.22026392  0.30276404  0.90835311     0.07400
C485        C  0.21953986  0.30957914  0.92162255    -0.05700
H486        H  0.19281588  0.29663125  0.89169269     0.08100
H487        H  0.23393861  0.31393229  0.92948380     0.09300
Cu488      Cu  0.15307420  0.30899533  0.90825042     0.44200
Cu489      Cu  0.18827277  0.32281043  0.94063192     0.42000
Cu490      Cu  0.13769341  0.33610752  0.93653074     0.43900
N491        N  0.12432817  0.31814480  0.90761648    -0.34300
N492        N  0.11965811  0.32891321  0.91793974    -0.28600
C493        C  0.10106547  0.33365144  0.91444126    -0.04700
C494        C  0.09331064  0.32522794  0.90129850     0.07500
C495        C  0.10842965  0.31543153  0.89725168     0.01300
H496        H  0.09340743  0.34217735  0.92109741     0.09000
H497        H  0.10827296  0.30740260  0.88745532     0.08100
N498        N  0.15734710  0.34171220  0.95448303    -0.35800
N499        N  0.17627561  0.33709127  0.95608260    -0.27900
C500        C  0.18655693  0.34470848  0.96857529    -0.03200
C501        C  0.17334257  0.35458068  0.97511225     0.05400
C502        C  0.15484633  0.35217161  0.96588057     0.03500
H503        H  0.20282187  0.34367264  0.97243841     0.08600
H504        H  0.14152088  0.35884834  0.96707285     0.07500
N505        N  0.58182272  0.15186602  0.92036482    -0.36300
N506        N  0.53873358  0.12721726  0.90076503    -0.56800
N507        N  0.55994687  0.09750633  0.88966126    -0.36200
N508        N  0.60440036  0.12416959  0.90825701    -0.56800
C509        C  0.57087932  0.16608470  0.92244755     0.27300
C510        C  0.60646663  0.16564240  0.92589824     0.27300
C511        C  0.54116749  0.09217522  0.88030215     0.27300
C512        C  0.57609760  0.09067859  0.88424679     0.27300
C513        C  0.52968217  0.13881989  0.90873684     0.36000
C514        C  0.51846985  0.11083237  0.89238618     0.36000
C515        C  0.62217550  0.13690595  0.91833840     0.36000
C516        C  0.61008410  0.10742804  0.90263646     0.36000
C517        C  0.58842259  0.18873815  0.92975670    -0.21500
C518        C  0.61091385  0.18852561  0.93188476    -0.21500
C519        C  0.54511935  0.08137646  0.86891121    -0.21500
C520        C  0.56701234  0.08029954  0.87141603    -0.21500
C521        C  0.50368001  0.12996874  0.90534607    -0.22600
C522        C  0.49650209  0.11210749  0.89505477    -0.22600
C523        C  0.63925223  0.12822872  0.91914579    -0.22600
C524        C  0.63159392  0.10955358  0.90921327    -0.22600
C525        C  0.54517893  0.15878818  0.91831725    -0.17900
C526        C  0.62491988  0.15800153  0.92597665    -0.17900
C527        C  0.59817162  0.09259722  0.89072983    -0.17900
C528        C  0.51991553  0.09577975  0.88190127    -0.17900
H529        H  0.58544758  0.20397009  0.93314356     0.15000
H530        H  0.62855702  0.20359441  0.93723286     0.15000
H531        H  0.53342899  0.07488154  0.85971503     0.15000
H532        H  0.57515297  0.07262195  0.86451585     0.15000
H533        H  0.49121944  0.13587436  0.90976670     0.13300
H534        H  0.47726974  0.10138025  0.89011062     0.13300
H535        H  0.65592667  0.13512073  0.92596272     0.13300
H536        H  0.64138113  0.09941626  0.90684389     0.13300
H537        H  0.57214898  0.13282136  0.91646938     0.26500
H538        H  0.56002650  0.10291585  0.89961885     0.26500
N539        N  0.67973828  0.19531800  0.94962748    -0.26900
N540        N  0.69115758  0.20750862  0.93814856    -0.34800
C541        C  0.67361933  0.19560659  0.92801010     0.01400
C542        C  0.65009237  0.17492847  0.93339746     0.07400
C543        C  0.65447899  0.17526224  0.94712733    -0.05700
H544        H  0.67743779  0.20204153  0.91757268     0.08100
H545        H  0.64026032  0.16238355  0.95473939     0.09300
Cu546      Cu  0.72913743  0.24104374  0.93692774     0.44200
Cu547      Cu  0.69912605  0.20801190  0.96798708     0.42000
Cu548      Cu  0.76364617  0.27233812  0.96781178     0.43900
N549        N  0.76498059  0.27719420  0.93755240    -0.34300
N550        N  0.77736214  0.28947938  0.94885137    -0.28600
C551        C  0.79788773  0.31416388  0.94576845    -0.04700
C552        C  0.79846807  0.31720836  0.93186390     0.07500
C553        C  0.77730749  0.29346722  0.92701067     0.01300
H554        H  0.81038430  0.32923811  0.95311619     0.09000
H555        H  0.77008228  0.28912135  0.91670638     0.08100
N556        N  0.74580526  0.24890492  0.98487357    -0.35800
N557        N  0.72278356  0.22567462  0.98482210    -0.27900
C558        C  0.71763079  0.21535597  0.99733212    -0.03200
C559        C  0.73839498  0.23281537  0.00575689     0.05400
C560        C  0.75584851  0.25396361  0.99747523     0.03500
H561        H  0.70027788  0.19616197  0.99996894     0.08600
H562        H  0.77451178  0.27180490  0.00028162     0.07500
N563        N  0.68341021  0.05416434  0.83601237    -0.26900
N564        N  0.67758232  0.07219067  0.83745313    -0.34800
C565        C  0.68803161  0.08937385  0.82711671     0.01400
C566        C  0.70107970  0.08193317  0.81856886     0.07400
C567        C  0.69784732  0.05953035  0.82461111    -0.05700
H568        H  0.68677341  0.10649410  0.82621726     0.08100
H569        H  0.70540690  0.04796345  0.82100458     0.09300
Cu570      Cu  0.65617021  0.07380448  0.85333216     0.44200
Cu571      Cu  0.67153638  0.02362805  0.84994791     0.42000
Cu572      Cu  0.63248718  0.02457911  0.87860588     0.43900
N573        N  0.63387952  0.07255045  0.86956811    -0.34300
N574        N  0.62476922  0.05410843  0.87902767    -0.28600
C575        C  0.61066164  0.05825892  0.88807266    -0.04700
C576        C  0.61096970  0.08038464  0.88401548     0.07500
C577        C  0.62595197  0.08899638  0.87229357     0.01300
H578        H  0.60087783  0.04609387  0.89689162     0.09000
H579        H  0.63058838  0.10586297  0.86615607     0.08100
N580        N  0.64256343  0.99702308  0.87604281    -0.35800
N581        N  0.65632695  0.99627094  0.86580610    -0.27900
C582        C  0.65816584  0.97515075  0.86740916    -0.03200
C583        C  0.64512354  0.96215259  0.87926221     0.05400
C584        C  0.63544147  0.97661262  0.88438348     0.03500
H585        H  0.66821615  0.96965667  0.86043766     0.08600
H586        H  0.62329912  0.97224464  0.89330850     0.07500
N587        N  0.66394973  0.58869818  0.83198848    -0.26900
N588        N  0.65478587  0.56319736  0.83243215    -0.34800
C589        C  0.66535050  0.55726160  0.82225992     0.01400
C590        C  0.68226433  0.58012540  0.81503625     0.07400
C591        C  0.68097453  0.59979440  0.82148805    -0.05700
H592        H  0.66164604  0.53781591  0.82053765     0.08100
H593        H  0.69152740  0.62053395  0.81876817     0.09300
Cu594      Cu  0.63047235  0.53760647  0.84738920     0.44200
Cu595      Cu  0.65258344  0.60628791  0.84606247     0.42000
Cu596      Cu  0.61321520  0.56304676  0.87481161     0.43900
N597        N  0.61073971  0.51550485  0.86424168    -0.34300
N598        N  0.60454410  0.52485781  0.87462182    -0.28600
C599        C  0.59286178  0.50600931  0.88422796    -0.04700
C600        C  0.59182743  0.48390918  0.87954189     0.07500
C601        C  0.60331482  0.49055675  0.86688929     0.01300
H602        H  0.58602364  0.50833891  0.89391460     0.09000
H603        H  0.60649642  0.47836126  0.86021499     0.08100
N604        N  0.62287543  0.60127301  0.87186293    -0.35800
N605        N  0.63700655  0.61696958  0.86166068    -0.27900
C606        C  0.63895825  0.64015692  0.86304546    -0.03200
C607        C  0.62533899  0.63891643  0.87464231     0.05400
C608        C  0.61541149  0.61394871  0.87991731     0.03500
H609        H  0.64909086  0.65643457  0.85595862     0.08600
H610        H  0.60371389  0.60556011  0.88902778     0.07500
N611        N  0.60268443  0.73732781  0.91538552    -0.26900
N612        N  0.61467416  0.75416659  0.90524852    -0.34800
C613        C  0.62108517  0.74269928  0.89571199     0.01400
C614        C  0.61238204  0.71732408  0.89996459     0.07400
C615        C  0.60092268  0.71468547  0.91249735    -0.05700
H616        H  0.63076447  0.75193248  0.88623437     0.08100
H617        H  0.59215241  0.69766405  0.91914323     0.09300
Cu618      Cu  0.62013447  0.79121753  0.90422032     0.44200
Cu619      Cu  0.58842903  0.74479411  0.93274044     0.42000
Cu620      Cu  0.58816004  0.80346598  0.93152116     0.43900
N621        N  0.61857505  0.82470390  0.90533706    -0.34300
N622        N  0.60652436  0.82869819  0.91529811    -0.28600
C623        C  0.60859439  0.85171718  0.91325442    -0.04700
C624        C  0.62260363  0.86295646  0.90139145     0.07500
C625        C  0.62862331  0.84519800  0.89662599     0.01300
H626        H  0.60030780  0.85957027  0.91994113     0.09000
H627        H  0.63983369  0.84712984  0.88764856     0.08100
N628        N  0.57296334  0.77751341  0.94765168    -0.35800
N629        N  0.57356213  0.75601722  0.94834418    -0.27900
C630        C  0.56255839  0.74354351  0.96011757    -0.03200
C631        C  0.55457582  0.75793372  0.96715319     0.05400
C632        C  0.56146845  0.77929941  0.95887774     0.03500
H633        H  0.55992181  0.72501152  0.96310897     0.08600
H634        H  0.55854947  0.79514389  0.96088730     0.07500
N635        N  0.81444377  0.38285346  0.91869383    -0.36300
N636        N  0.83573337  0.42642473  0.89948394    -0.56800
N637        N  0.86946319  0.41031905  0.88783655    -0.36200
N638        N  0.84612262  0.36522456  0.90602800    -0.56800
C639        C  0.79771148  0.39100218  0.92075693     0.27300
C640        C  0.80262830  0.35821802  0.92399911     0.27300
C641        C  0.87353273  0.42922398  0.87892179     0.27300
C642        C  0.87792108  0.39599743  0.88188931     0.27300
C643        C  0.82233390  0.43309884  0.90770046     0.36000
C644        C  0.85175728  0.44793192  0.89173639     0.36000
C645        C  0.83471361  0.34689421  0.91596891     0.36000
C646        C  0.86381467  0.36145949  0.89977058     0.36000
C647        C  0.77528748  0.37157278  0.92766185    -0.21500
C648        C  0.77836273  0.35090889  0.92970648    -0.21500
C649        C  0.88510519  0.42721855  0.86726416    -0.21500
C650        C  0.88792503  0.40633182  0.86913297    -0.21500
C651        C  0.82971250  0.45882401  0.90510859    -0.22600
C652        C  0.84844222  0.46827293  0.89502885    -0.22600
C653        C  0.84518127  0.33136757  0.91603758    -0.22600
C654        C  0.86356797  0.34054816  0.90577631    -0.22600
C655        C  0.80245569  0.41582784  0.91698956    -0.17900
C656        C  0.81316524  0.34220282  0.92408759    -0.17900
C657        C  0.87794391  0.37462189  0.88783641    -0.17900
C658        C  0.86823437  0.44901470  0.88122372    -0.17900
H659        H  0.75836122  0.37214005  0.93084883     0.15000
H660        H  0.76417394  0.33251635  0.93478127     0.15000
H661        H  0.89101459  0.43959114  0.85833394     0.15000
H662        H  0.89661449  0.39975986  0.86190067     0.15000
H663        H  0.82234048  0.46964618  0.90995660     0.13300
H664        H  0.85834698  0.48785406  0.89059339     0.13300
H665        H  0.83958990  0.31465700  0.92254572     0.13300
H666        H  0.87479020  0.33215955  0.90283541     0.13300
H667        H  0.83380744  0.39436840  0.91503660     0.26500
H668        H  0.86385993  0.40913121  0.89786712     0.26500
N669        N  0.76594481  0.43667310  0.93694781    -0.26900
N670        N  0.75454103  0.43323587  0.92500591    -0.34800
C671        C  0.76583462  0.42548312  0.91606256     0.01400
C672        C  0.78506516  0.42376118  0.92275299     0.07400
C673        C  0.78457864  0.43089489  0.93596521    -0.05700
H674        H  0.76020072  0.42103978  0.90553719     0.08100
H675        H  0.79701960  0.43204974  0.94421430     0.09300
Cu676      Cu  0.72301348  0.43763629  0.92170931     0.44200
Cu677      Cu  0.75622444  0.44990250  0.95392630     0.42000
Cu678      Cu  0.70450863  0.46286795  0.94989416     0.43900
N679        N  0.68913398  0.43886723  0.92200596    -0.34300
N680        N  0.68265542  0.44842267  0.93220904    -0.28600
C681        C  0.65862120  0.44432023  0.92979253    -0.04700
C682        C  0.64956978  0.43151224  0.91752777     0.07500
C683        C  0.66929041  0.42829311  0.91285012     0.01300
H684        H  0.64795696  0.44910257  0.93674805     0.09000
H685        H  0.66878612  0.41809543  0.90375477     0.08100
N686        N  0.72566765  0.46988998  0.96765309    -0.35800
N687        N  0.74433909  0.46487378  0.96918709    -0.27900
C688        C  0.75351048  0.47068404  0.98195005    -0.03200
C689        C  0.73975957  0.47958500  0.98891393     0.05400
C690        C  0.72234184  0.47887379  0.97940811     0.03500
H691        H  0.76929952  0.46879733  0.98569332     0.08600
H692        H  0.70785464  0.48398469  0.98092661     0.07500
N693        N  0.57747810  0.38050077  0.90945137    -0.36300
N694        N  0.59589912  0.43326087  0.89934603    -0.56800
N695        N  0.54149052  0.41400190  0.89066988    -0.36200
N696        N  0.52288300  0.36131055  0.90109047    -0.56800
C697        C  0.60216483  0.39464190  0.91501100     0.27300
C698        C  0.56389635  0.35666063  0.91574260     0.27300
C699        C  0.55417207  0.43903589  0.88580927     0.27300
C700        C  0.51591488  0.40089055  0.88632246     0.27300
C701        C  0.61959889  0.43803951  0.90347435     0.36000
C702        C  0.60111291  0.45521372  0.89275988     0.36000
C703        C  0.51858895  0.33830231  0.90584143     0.36000
C704        C  0.50010213  0.35532524  0.89495347     0.36000
C705        C  0.60445550  0.37931351  0.92466139    -0.21500
C706        C  0.58037510  0.35541318  0.92512234    -0.21500
C707        C  0.53607184  0.44219412  0.87877138    -0.21500
C708        C  0.51202294  0.41819501  0.87908302    -0.21500
C709        C  0.64005103  0.46322303  0.89954672    -0.22600
C710        C  0.62836701  0.47410247  0.89275965    -0.22600
C711        C  0.49281163  0.31757121  0.90286865    -0.22600
C712        C  0.48112362  0.32831750  0.89596459    -0.22600
C713        C  0.62297479  0.42080566  0.91153005    -0.17900
C714        C  0.53718915  0.33571555  0.91322418    -0.17900
C715        C  0.49621776  0.37351333  0.88804160    -0.17900
C716        C  0.58187032  0.45868317  0.88667576    -0.17900
H717        H  0.62164258  0.38480331  0.93083669     0.15000
H718        H  0.57549833  0.33907064  0.93175785     0.15000
H719        H  0.53992808  0.45972500  0.87353989     0.15000
H720        H  0.49390072  0.41384536  0.87419779     0.15000
H721        H  0.66116579  0.47288103  0.90149538     0.13300
H722        H  0.63881319  0.49376841  0.88839165     0.13300
H723        H  0.48340961  0.29681733  0.90534060     0.13300
H724        H  0.46100614  0.31734863  0.89201672     0.13300
H725        H  0.57107493  0.38580834  0.90104024     0.26500
H726        H  0.54989430  0.40631038  0.89653063     0.26500
N727        N  0.51436857  0.18786859  0.93636483    -0.26900
N728        N  0.52644210  0.20520469  0.92644023    -0.34800
C729        C  0.53899539  0.19738807  0.91846139     0.01400
C730        C  0.53464363  0.17410849  0.92366102     0.07400
C731        C  0.51899527  0.16856408  0.93499757    -0.05700
H732        H  0.55066338  0.20801198  0.90963272     0.08100
H733        H  0.51167174  0.15188037  0.94178007     0.09300
Cu734      Cu  0.52604724  0.23908413  0.92431141     0.44200
Cu735      Cu  0.49264646  0.19165091  0.95137814     0.42000
Cu736      Cu  0.48932910  0.24998146  0.94913135     0.43900
N737        N  0.52322173  0.27172441  0.92420347    -0.34300
N738        N  0.50938394  0.27551406  0.93321830    -0.28600
C739        C  0.51167451  0.29850081  0.93052269    -0.04700
C740        C  0.52779525  0.30965085  0.91930183     0.07500
C741        C  0.53487702  0.29229689  0.91556032     0.01300
H742        H  0.50282706  0.30677526  0.93647163     0.09000
H743        H  0.54780447  0.29461755  0.90729976     0.08100
N744        N  0.47219606  0.22227955  0.96446182    -0.35800
N745        N  0.47340058  0.20111763  0.96530205    -0.27900
C746        C  0.46116784  0.18787759  0.97670307    -0.03200
C747        C  0.45195265  0.20146325  0.98342417     0.05400
C748        C  0.45916276  0.22307317  0.97528976     0.03500
H749        H  0.45922060  0.16971210  0.97979650     0.08600
H750        H  0.45589922  0.23869979  0.97725874     0.07500
N751        N  0.97620465  0.60081483  0.84545387    -0.26900
N752        N  0.97700764  0.58427849  0.85388292    -0.34800
C753        C  0.00118395  0.59649151  0.85965204     0.01400
C754        C  0.01659310  0.62214736  0.85472165     0.07400
C755        C  0.00002922  0.62415870  0.84567836    -0.05700
H756        H  0.00673311  0.58755980  0.86730212     0.08100
H757        H  0.00472865  0.64128606  0.83977150     0.09300
Cu758      Cu  0.94491506  0.54647894  0.85817743     0.44200
Cu759      Cu  0.94186122  0.59062150  0.83479024     0.42000
Cu760      Cu  0.88162387  0.52652995  0.84446418     0.43900
N761        N  0.91030923  0.51060735  0.86272405    -0.34300
N762        N  0.88668088  0.50340156  0.85795286    -0.28600
C763        C  0.86801210  0.48000241  0.86347368    -0.04700
C764        C  0.88067510  0.47219497  0.87206759     0.07500
C765        C  0.90743229  0.49198603  0.87134126     0.01300
H766        H  0.84681743  0.46974873  0.86161172     0.09000
H767        H  0.92348365  0.49323500  0.87703232     0.08100
N768        N  0.88264119  0.55198362  0.83006392    -0.35800
N769        N  0.90419625  0.57481404  0.82635525    -0.27900
C770        C  0.89765016  0.58519011  0.81625357    -0.03200
C771        C  0.87065659  0.56807996  0.81346630     0.05400
C772        C  0.86192863  0.54729926  0.82248116     0.03500
H773        H  0.91182407  0.60340927  0.81106973     0.08600
H774        H  0.84199876  0.52976270  0.82341588     0.07500
N775        N  0.37211882  0.98444961  0.84443933    -0.26900
N776        N  0.39019527  0.98426109  0.85197542    -0.34800
C777        C  0.37896901  0.96068107  0.85814614     0.01400
C778        C  0.35249348  0.94521664  0.85433323     0.07400
C779        C  0.34886577  0.96079578  0.84551723    -0.05700
H780        H  0.38908333  0.95570171  0.86538040     0.08100
H781        H  0.33028564  0.95601704  0.84102502     0.09300
Cu782      Cu  0.42792048  0.01701540  0.85553184     0.44200
Cu783      Cu  0.37908521  0.01820666  0.83490494     0.42000
Cu784      Cu  0.44085408  0.07965240  0.84524408     0.43900
N785        N  0.46161892  0.05251540  0.86121236    -0.34300
N786        N  0.46618280  0.07578910  0.85773257    -0.28600
C787        C  0.48826130  0.09495717  0.86408981    -0.04700
C788        C  0.49787762  0.08301303  0.87196981     0.07500
C789        C  0.48058245  0.05613689  0.86987269     0.01300
H790        H  0.49613166  0.11590413  0.86343953     0.09000
H791        H  0.48097883  0.04035264  0.87480365     0.08100
N792        N  0.41377382  0.07754130  0.83148507    -0.35800
N793        N  0.39163144  0.05543880  0.82759749    -0.27900
C794        C  0.38000979  0.06116784  0.81780093    -0.03200
C795        C  0.39565513  0.08819471  0.81536765     0.05400
C796        C  0.41682873  0.09786493  0.82427765     0.03500
H797        H  0.36223864  0.04647326  0.81242144     0.08600
H798        H  0.43370589  0.11811324  0.82523582     0.07500
N799        N  0.15379320  0.71865214  0.89156776    -0.26900
N800        N  0.15825962  0.73702387  0.88266473    -0.34800
C801        C  0.13776165  0.72655858  0.87387301     0.01400
C802        C  0.11975738  0.70022801  0.87728994     0.07400
C803        C  0.13056486  0.69602518  0.88861124    -0.05700
H804        H  0.13649215  0.73710076  0.86536810     0.08100
H805        H  0.12207512  0.67792948  0.89441221     0.09300
Cu806      Cu  0.19327751  0.77460030  0.88212896     0.44200
Cu807      Cu  0.17902705  0.72468315  0.90748499     0.42000
Cu808      Cu  0.24242377  0.78606892  0.90746423     0.43900
N809        N  0.23226023  0.80764833  0.88241453    -0.34300
N810        N  0.24997270  0.81123633  0.89158379    -0.28600
C811        C  0.27333223  0.83385189  0.88896079    -0.04700
C812        C  0.27043071  0.84521615  0.87752285     0.07500
C813        C  0.24405784  0.82803976  0.87362661     0.01300
H814        H  0.29116816  0.84131729  0.89495241     0.09000
H815        H  0.23400587  0.83027604  0.86517704     0.08100
N816        N  0.22944524  0.75950978  0.92317956    -0.35800
N817        N  0.20607525  0.73671698  0.92321878    -0.27900
C818        C  0.20263139  0.72476569  0.93521305    -0.03200
C819        C  0.22496359  0.74091688  0.94311029     0.05400
C820        C  0.24152528  0.76280330  0.93512167     0.03500
H821        H  0.18459874  0.70637314  0.93815847     0.08600
H822        H  0.26067541  0.78016496  0.93785971     0.07500
N823        N  0.07351017  0.36694627  0.33042008    -0.26900
N824        N  0.09503624  0.39034222  0.33337773    -0.34800
C825        C  0.11489179  0.39518769  0.32504473     0.01400
C826        C  0.10554020  0.37387766  0.31631827     0.07400
C827        C  0.07912592  0.35634883  0.32007691    -0.05700
H828        H  0.13458691  0.41320780  0.32524546     0.08100
H829        H  0.06456308  0.33773886  0.31535077     0.09300
Cu830      Cu  0.09654216  0.41596701  0.34779395     0.44200
Cu831      Cu  0.03688353  0.35094256  0.33989693     0.42000
Cu832      Cu  0.03366009  0.39597269  0.36238334     0.43900
N833        N  0.09184896  0.43857809  0.36176364    -0.34300
N834        N  0.06843409  0.43128942  0.36687210    -0.28600
C835        C  0.07154187  0.44991354  0.37550516    -0.04700
C836        C  0.09824126  0.46986272  0.37583058     0.07500
C837        C  0.11063902  0.46211501  0.36705822     0.01300
H838        H  0.05561086  0.44889144  0.38119427     0.09000
H839        H  0.13166491  0.47280806  0.36467196     0.08100
N840        N  0.00180966  0.35825160  0.35840752    -0.35800
N841        N  0.00276406  0.34128140  0.35042369    -0.27900
C842        C  0.97877509  0.31819460  0.35052404    -0.03200
C843        C  0.96199734  0.32093345  0.35898750     0.05400
C844        C  0.97737168  0.34662250  0.36376737     0.03500
H845        H  0.97394625  0.30092493  0.34473104     0.00800
H846        H  0.97148801  0.35609692  0.37088184     0.07500
N847        N  0.59203982  0.88490437  0.32702006    -0.26900
N848        N  0.56845704  0.86369971  0.33016695    -0.34800
C849        C  0.56341751  0.84346618  0.32221670     0.01400
C850        C  0.58466555  0.85220013  0.31345463     0.07400
C851        C  0.60259725  0.87856902  0.31690878    -0.05700
H852        H  0.54532260  0.82391795  0.32277553     0.08100
H853        H  0.62146284  0.89244176  0.31207803     0.09300
Cu854      Cu  0.54215240  0.86255503  0.34407721     0.44200
Cu855      Cu  0.60791730  0.92182546  0.33607417     0.42000
Cu856      Cu  0.56001499  0.92380344  0.35781639     0.43900
N857        N  0.51723164  0.86646962  0.35679179    -0.34300
N858        N  0.52376922  0.88968846  0.36157566    -0.28600
C859        C  0.50438792  0.88640029  0.36978981    -0.04700
C860        C  0.48469824  0.85973106  0.37017394     0.07500
C861        C  0.49342235  0.84756940  0.36187430     0.01300
H862        H  0.50513085  0.90205300  0.37551214     0.09000
H863        H  0.48359232  0.82656087  0.35999495     0.08100
N864        N  0.59872482  0.95484371  0.35519617    -0.35800
N865        N  0.61651199  0.95478998  0.34734417    -0.27900
C866        C  0.64010271  0.97805839  0.34889573    -0.03200
C867        C  0.63678859  0.99308039  0.35828473     0.05400
C868        C  0.61034767  0.97770220  0.36201095     0.03500
H869        H  0.65850511  0.98305471  0.34410225     0.08600
H870        H  0.60033037  0.98244226  0.36942250     0.07500
N871        N  0.74867736  0.13434747  0.38621091    -0.26900
N872        N  0.73096693  0.12963679  0.39562507    -0.34800
C873        C  0.70910052  0.10527906  0.39374174     0.01400
C874        C  0.71322662  0.09399489  0.38262431     0.07400
C875        C  0.73856102  0.11310368  0.37809793    -0.05700
H876        H  0.69125488  0.09694344  0.39980361     0.08100
H877        H  0.74886706  0.11187530  0.36945572     0.09300
Cu878      Cu  0.73631056  0.15638011  0.41043890     0.44200
Cu879      Cu  0.78485883  0.16992042  0.38401903     0.42000
Cu880      Cu  0.79523653  0.22113460  0.40717280     0.43900
N881        N  0.74705647  0.18628901  0.42433916    -0.34300
N882        N  0.76909862  0.21012358  0.42319338    -0.28600
C883        C  0.77161894  0.22460168  0.43409321    -0.04700
C884        C  0.74992745  0.20921922  0.44248386     0.07500
C885        C  0.73476819  0.18499847  0.43596040     0.01300
H886        H  0.78822310  0.24472828  0.43584652     0.09000
H887        H  0.71677229  0.16735265  0.43964066     0.08100
N888        N  0.82031697  0.22745372  0.39123217    -0.35800
N889        N  0.81709700  0.20865688  0.38302790    -0.27900
C890        C  0.83787929  0.21901855  0.37447096    -0.03200
C891        C  0.85488617  0.24570251  0.37738156     0.05400
C892        C  0.84310286  0.25031467  0.38807381     0.03500
H893        H  0.84053165  0.20785517  0.36682760     0.08600
H894        H  0.85108709  0.26859070  0.39362954     0.07500
N895        N  0.31088036  0.35651658  0.32872353    -0.26900
N896        N  0.31952170  0.38186514  0.32958164    -0.34800
C897        C  0.30850222  0.38793541  0.31966097     0.01400
C898        C  0.29185339  0.36537759  0.31210820     0.07400
C899        C  0.29393653  0.34577917  0.31816637    -0.05700
H900        H  0.31157451  0.40723185  0.31843752     0.08100
H901        H  0.28384027  0.32520963  0.31522693     0.09300
Cu902      Cu  0.34353023  0.40719390  0.34484972     0.44200
Cu903      Cu  0.32184279  0.33787978  0.34251157     0.42000
Cu904      Cu  0.35982624  0.37994868  0.37164315     0.43900
N905        N  0.36266425  0.42835807  0.36215773    -0.34300
N906        N  0.36842647  0.41814798  0.37233023    -0.28600
C907        C  0.37965557  0.43614726  0.38234612    -0.04700
C908        C  0.38095207  0.45869469  0.37816722     0.07500
C909        C  0.37001705  0.45310546  0.36536123     0.01300
H910        H  0.38617405  0.43300199  0.39194136     0.09000
H911        H  0.36725404  0.46592701  0.35893609     0.08100
N912        N  0.34980733  0.34157215  0.36870287    -0.35800
N913        N  0.33630434  0.32616225  0.35831711    -0.27900
C914        C  0.33382020  0.30271120  0.35993027    -0.03200
C915        C  0.34613046  0.30339198  0.37196391     0.05400
C916        C  0.35618082  0.32845995  0.37712515     0.03500
H917        H  0.32355484  0.28630353  0.35293720     0.08600
H918        H  0.36780662  0.33696060  0.38623280     0.07500
N919        N  0.29923047  0.89570803  0.33446611    -0.26900
N920        N  0.30146456  0.87546555  0.33676773    -0.34800
C921        C  0.28686041  0.85639702  0.32768132     0.01400
C922        C  0.27468534  0.86492059  0.31921867     0.07400
C923        C  0.28287267  0.88995288  0.32384254    -0.05700
H924        H  0.28570889  0.83790273  0.32711197     0.08100
H925        H  0.27833410  0.90345782  0.31945751     0.09300
Cu926      Cu  0.32551751  0.87492403  0.35144574     0.44200
Cu927      Cu  0.32019877  0.93034778  0.34555876     0.42000
Cu928      Cu  0.36559459  0.93214545  0.37169347     0.43900
N929        N  0.35146876  0.87727655  0.36588706    -0.34300
N930        N  0.36676556  0.89853621  0.37336786    -0.28600
C931        C  0.38140134  0.89377242  0.38173229    -0.04700
C932        C  0.37477240  0.86826796  0.37931416     0.07500
C933        C  0.35580902  0.85840124  0.36923764     0.01300
H934        H  0.39560330  0.90768868  0.38904795     0.09000
H935        H  0.34591307  0.83896154  0.36466633     0.08100
N936        N  0.35800928  0.96141940  0.36854924    -0.35800
N937        N  0.34197297  0.96087344  0.35918071    -0.27900
C938        C  0.34103086  0.98249616  0.36046081    -0.03200
C939        C  0.35709680  0.99736690  0.37122184     0.05400
C940        C  0.36759220  0.98337454  0.37604003     0.03500
H941        H  0.32934813  0.98680926  0.35399664     0.08600
H942        H  0.38064218  0.98829341  0.38464187     0.07500
N943        N  0.37390392  0.12805414  0.40021976    -0.26900
N944        N  0.38489950  0.12380781  0.41064248    -0.34800
C945        C  0.38530611  0.10216487  0.40822550     0.01400
C946        C  0.37400970  0.09226062  0.39567786     0.07400
C947        C  0.36682637  0.10905804  0.39092507    -0.05700
H948        H  0.39297177  0.09410229  0.41520555     0.08100
H949        H  0.35757370  0.10786438  0.38132516     0.09300
Cu950      Cu  0.39904942  0.14722375  0.42776612     0.44200
Cu951      Cu  0.36981285  0.15986601  0.39883995     0.42000
Cu952      Cu  0.39669891  0.20509177  0.42734967     0.43900
N953        N  0.41224349  0.17371862  0.44366427    -0.34300
N954        N  0.41150033  0.19515820  0.44352061    -0.28600
C955        C  0.42134374  0.20822063  0.45525784    -0.04700
C956        C  0.42859424  0.19424058  0.46324264     0.07500
C957        C  0.42255994  0.17249855  0.45548098     0.01300
H958        H  0.42333685  0.22669714  0.45762672     0.09000
H959        H  0.42510068  0.15668121  0.45825193     0.08100
N960        N  0.37985612  0.21054493  0.41042993    -0.35800
N961        N  0.36983649  0.19411534  0.40005811    -0.27900
C962        C  0.36035972  0.20353388  0.39094399    -0.03200
C963        C  0.36464265  0.22713366  0.39581665     0.05400
C964        C  0.37707069  0.23081735  0.40820765     0.03500
H965        H  0.35075354  0.19358907  0.38159824     0.08600
H966        H  0.38394373  0.24720393  0.41511699     0.07500
N967        N  0.43881393  0.81349069  0.39713767    -0.36300
N968        N  0.42124756  0.84594959  0.38546759    -0.56800
N969        N  0.37526449  0.82027626  0.40322611    -0.36200
N970        N  0.39469661  0.79058624  0.41620258    -0.56800
C971        C  0.46046307  0.83084481  0.38973422     0.27300
C972        C  0.44654022  0.80187391  0.40600877     0.27300
C973        C  0.37219134  0.83888466  0.39761189     0.27300
C974        C  0.35795431  0.80935062  0.41365910     0.27300
C975        C  0.44142509  0.85236992  0.37688494     0.36000
C976        C  0.40777964  0.85582538  0.38003151     0.36000
C977        C  0.40436450  0.77551870  0.41906930     0.36000
C978        C  0.37048146  0.77857212  0.42211840     0.36000
C979        C  0.48209677  0.82998332  0.39384453    -0.21500
C980        C  0.47327726  0.81164031  0.40408523    -0.21500
C981        C  0.35244565  0.83957537  0.40448398    -0.21500
C982        C  0.34348139  0.82096297  0.41461115    -0.21500
C983        C  0.44101375  0.86672192  0.36603859    -0.22600
C984        C  0.41972438  0.86895875  0.36804795    -0.22600
C985        C  0.38644383  0.75408193  0.42701860    -0.22600
C986        C  0.36491795  0.75596138  0.42891590    -0.22600
C987        C  0.46110644  0.84678473  0.37905833    -0.17900
C988        C  0.42981552  0.78171596  0.41530719    -0.17900
C989        C  0.35356978  0.78803006  0.42179040    -0.17900
C990        C  0.38548184  0.85409080  0.38596496    -0.17900
H991        H  0.50221750  0.84141622  0.38990466     0.15000
H992        H  0.48521063  0.80612058  0.40949391     0.15000
H993        H  0.34502728  0.85199142  0.40234415     0.15000
H994        H  0.32785585  0.81631314  0.42177520     0.15000
H995        H  0.45469327  0.87486213  0.35758534     0.13300
H996        H  0.41379522  0.87916912  0.36145515     0.13300
H997        H  0.38866199  0.73873083  0.43106429     0.13300
H998        H  0.34722206  0.74222928  0.43466204     0.13300
H999        H  0.41936145  0.80780859  0.39521917     0.26500
H1000       H  0.38615462  0.81323354  0.39922073     0.26500
N1001       N  0.45512789  0.75084975  0.43645425    -0.26900
N1002       N  0.44592065  0.73450774  0.42600584    -0.34800
C1003       C  0.43627757  0.74342432  0.41674017     0.01400
C1004       C  0.43961234  0.76645115  0.42159942     0.07400
C1005       C  0.45148927  0.77061140  0.43412453    -0.05700
H1006       H  0.42695688  0.73353205  0.40732582     0.08100
H1007       H  0.45658084  0.78647291  0.44112681     0.09300
Cu1008     Cu  0.44597383  0.70039443  0.42481497     0.44200
Cu1009     Cu  0.47131878  0.74492502  0.45353836     0.42000
Cu1010     Cu  0.47620701  0.68744725  0.45224052     0.43900
N1011       N  0.44953623  0.66827800  0.42530787    -0.34300
N1012       N  0.46115484  0.66376887  0.43531013    -0.28600
C1013       C  0.45973551  0.64113826  0.43286921    -0.04700
C1014       C  0.44660052  0.63105771  0.42074254     0.07500
C1015       C  0.44026742  0.64858529  0.41623319     0.01300
H1016       H  0.46672429  0.63215957  0.43966652     0.09000
H1017       H  0.42907834  0.64675752  0.40725135     0.08100
N1018       N  0.48832340  0.71297049  0.46845856    -0.35800
N1019       N  0.48643884  0.73374942  0.46906318    -0.27900
C1020       C  0.49612365  0.74591109  0.48101919    -0.03200
C1021       C  0.50469702  0.73221958  0.48822116     0.05400
C1022       C  0.49927432  0.71136861  0.47994637     0.03500
H1023       H  0.49729300  0.76370003  0.48411194     0.08600
H1024       H  0.50269338  0.69590609  0.48210089     0.07500
N1025       N  0.14602468  0.52012639  0.40093507    -0.36300
N1026       N  0.11083740  0.53416326  0.38865470    -0.56800
N1027       N  0.13733750  0.58282687  0.40438996    -0.36200
N1028       N  0.16939829  0.56664468  0.41826929    -0.56800
C1029       C  0.12855693  0.49738246  0.39435264     0.27300
C1030       C  0.15945443  0.51454503  0.40982120     0.27300
C1031       C  0.11933907  0.58572874  0.39781027     0.27300
C1032       C  0.15032578  0.60301239  0.41326885     0.27300
C1033       C  0.10378875  0.51262521  0.38113415     0.36000
C1034       C  0.09967439  0.54597977  0.38270895     0.36000
C1035       C  0.18471741  0.55768448  0.42209253     0.36000
C1036       C  0.18060921  0.59105914  0.42369037     0.36000
C1037       C  0.13118338  0.47722554  0.39898989    -0.21500
C1038       C  0.15068109  0.48805410  0.40872449    -0.21500
C1039       C  0.12106405  0.60825961  0.40252339    -0.21500
C1040       C  0.14055474  0.61912700  0.41226775    -0.21500
C1041       C  0.08765680  0.51047276  0.37048503    -0.22600
C1042       C  0.08495859  0.53151991  0.37152012    -0.22600
C1043       C  0.20548200  0.57626847  0.43019597    -0.22600
C1044       C  0.20287590  0.59737175  0.43122114    -0.22600
C1045       C  0.11087989  0.49432235  0.38395613    -0.17900
C1046       C  0.17992261  0.53271994  0.41866431    -0.17900
C1047       C  0.17139300  0.60801296  0.42192367    -0.17900
C1048       C  0.10236168  0.56955520  0.38719034    -0.17900
H1049       H  0.12010784  0.45674938  0.39574893     0.15000
H1050       H  0.15746841  0.47751950  0.41442227     0.15000
H1051       H  0.10967873  0.61627295  0.39920820     0.15000
H1052       H  0.14690773  0.63701383  0.41790227     0.15000
H1053       H  0.07881711  0.49540354  0.36271621     0.13300
H1054       H  0.07365967  0.53580470  0.36471555     0.13300
H1055       H  0.22107264  0.57493650  0.43479365     0.13300
H1056       H  0.21618435  0.61547758  0.43672044     0.13300
H1057       H  0.15059731  0.53886992  0.39841468     0.26500
H1058       H  0.14193753  0.56905881  0.40226222     0.26500
N1059       N  0.29972288  0.75476354  0.44641219    -0.26900
N1060       N  0.28671336  0.74483123  0.43491442    -0.34800
C1061       C  0.30375187  0.75593498  0.42453522     0.01400
C1062       C  0.32871355  0.77364552  0.42971334     0.07400
C1063       C  0.32564668  0.77247642  0.44361471    -0.05700
H1064       H  0.29860381  0.75042882  0.41404168     0.08100
H1065       H  0.34114040  0.78309943  0.45110552     0.09300
Cu1066     Cu  0.24788284  0.71322497  0.43349725     0.44200
Cu1067     Cu  0.28128280  0.74252820  0.46518340     0.42000
Cu1068     Cu  0.21535021  0.68120555  0.46425513     0.43900
N1069       N  0.21490668  0.67514628  0.43423846    -0.34300
N1070       N  0.20334948  0.66281505  0.44566525    -0.28600
C1071       C  0.18516201  0.63713796  0.44302905    -0.04700
C1072       C  0.18544544  0.63336782  0.42927900     0.07500
C1073       C  0.20446683  0.65777129  0.42399313     0.01300
H1074       H  0.17358615  0.62215195  0.45059698     0.09000
H1075       H  0.21138581  0.66219768  0.41363759     0.08100
N1076       N  0.23161023  0.70479702  0.48119212    -0.35800
N1077       N  0.25556458  0.72696503  0.48164125    -0.27900
C1078       C  0.25906405  0.73816955  0.49386622    -0.03200
C1079       C  0.23618224  0.72229526  0.50147905     0.05400
C1080       C  0.21925499  0.70132333  0.49306512     0.03500
H1081       H  0.27643558  0.75719556  0.49667598     0.08600
H1082       H  0.19911704  0.68500730  0.49524477     0.07500
N1083       N  0.39816348  0.55947484  0.41242949    -0.36300
N1084       N  0.37889735  0.50740866  0.40090087    -0.56800
N1085       N  0.43029070  0.52938236  0.38789707    -0.36200
N1086       N  0.45053284  0.58058562  0.40076901    -0.56800
C1087       C  0.37453680  0.54470538  0.41890226     0.27300
C1088       C  0.41219607  0.58321494  0.41873993     0.27300
C1089       C  0.41864943  0.50351710  0.38468722     0.27300
C1090       C  0.45638233  0.54206444  0.38461009     0.27300
C1091       C  0.35575958  0.50221975  0.40620001     0.36000
C1092       C  0.37266981  0.48632016  0.39315944     0.36000
C1093       C  0.45472889  0.60335315  0.40582251     0.36000
C1094       C  0.47168590  0.58751907  0.39282404     0.36000
C1095       C  0.37340252  0.55944978  0.42932081    -0.21500
C1096       C  0.39714895  0.58369374  0.42922720    -0.21500
C1097       C  0.43757648  0.49976260  0.37916713    -0.21500
C1098       C  0.46137632  0.52406330  0.37913443    -0.21500
C1099       C  0.33481883  0.47738343  0.40212451    -0.22600
C1100       C  0.34552579  0.46731905  0.39385672    -0.22600
C1101       C  0.47894714  0.62481510  0.40134134    -0.22600
C1102       C  0.48969621  0.61479336  0.39309264    -0.22600
C1103       C  0.35333105  0.51893498  0.41518019    -0.17900
C1104       C  0.43754989  0.60501075  0.41485529    -0.17900
C1105       C  0.47547009  0.56964956  0.38561525    -0.17900
C1106       C  0.39115354  0.48356068  0.38575669    -0.17900
H1107       H  0.35708124  0.55357912  0.43622034     0.15000
H1108       H  0.40254976  0.59991693  0.43604006     0.15000
H1109       H  0.43453033  0.48147533  0.37539463     0.15000
H1110       H  0.48015911  0.52806781  0.37533631     0.15000
H1111       H  0.31399649  0.46748868  0.40484931     0.13300
H1112       H  0.33455399  0.44816685  0.38894870     0.13300
H1113       H  0.48794196  0.64552549  0.40376070     0.13300
H1114       H  0.50861932  0.62632372  0.38788571     0.13300
H1115       H  0.40302542  0.55481591  0.40329986     0.26500
H1116       H  0.42047072  0.53841037  0.39057664     0.26500
N1117       N  0.21524245  0.51217158  0.43982355    -0.26900
N1118       N  0.22558099  0.51313151  0.42785823    -0.34800
C1119       C  0.21463082  0.52055729  0.41851753     0.01400
C1120       C  0.19679950  0.52468769  0.42496860     0.07400
C1121       C  0.19764220  0.51920541  0.43844779    -0.05700
H1122       H  0.21950120  0.52306089  0.40786102     0.08100
H1123       H  0.18605828  0.51991008  0.44661029     0.09300
Cu1124     Cu  0.25524420  0.50593156  0.42488354     0.44200
Cu1125     Cu  0.22436444  0.50010485  0.45739033     0.42000
Cu1126     Cu  0.27568983  0.48684753  0.45469026     0.43900
N1127       N  0.28830549  0.50343747  0.42560514    -0.34300
N1128       N  0.29570218  0.49651467  0.43656225    -0.28600
C1129       C  0.31924356  0.49948935  0.43427368    -0.04700
C1130       C  0.32700402  0.50875843  0.42125957     0.07500
C1131       C  0.30706896  0.51112907  0.41602917     0.01300
H1132       H  0.33059787  0.49667787  0.44178046     0.09000
H1133       H  0.30697310  0.51929834  0.40630363     0.08100
N1134       N  0.25362918  0.47980707  0.47194346    -0.35800
N1135       N  0.23460980  0.48444731  0.47297965    -0.27900
C1136       C  0.22347484  0.47683283  0.48530632    -0.03200
C1137       C  0.23639173  0.46724603  0.49239119     0.05400
C1138       C  0.25534808  0.46938271  0.48357885     0.03500
H1139       H  0.20717924  0.47815472  0.48882418     0.08600
H1140       H  0.26889263  0.46312321  0.48529943     0.07500
N1141       N  0.60553059  0.65466295  0.33040290    -0.26900
N1142       N  0.57986141  0.64546170  0.33102100    -0.34800
C1143       C  0.57353300  0.65554685  0.32077757     0.01400
C1144       C  0.59623235  0.67202108  0.31323592     0.07400
C1145       C  0.61625170  0.67102750  0.31966170    -0.05700
H1146       H  0.55384549  0.65162860  0.31918107     0.08100
H1147       H  0.63699848  0.68127131  0.31676975     0.09300
Cu1148     Cu  0.55408540  0.62109131  0.34601064     0.44200
Cu1149     Cu  0.62435504  0.64502260  0.34467103     0.42000
Cu1150     Cu  0.58394406  0.61533358  0.37529964     0.43900
N1151       N  0.53245814  0.60144237  0.36307672    -0.34300
N1152       N  0.54377279  0.60014754  0.37423564    -0.28600
C1153       C  0.52511530  0.58768248  0.38388961    -0.04700
C1154       C  0.50093213  0.58070898  0.37841669     0.07500
C1155       C  0.50623672  0.58980740  0.36525597     0.01300
H1156       H  0.52895406  0.58448017  0.39416049     0.09000
H1157       H  0.49230462  0.58896987  0.35799533     0.08100
N1158       N  0.62202186  0.62410396  0.37271356    -0.35800
N1159       N  0.63642336  0.63370092  0.36157047    -0.27900
C1160       C  0.65898975  0.63423426  0.36317325    -0.03200
C1161       C  0.65864330  0.62437310  0.37591710     0.05400
C1162       C  0.63495953  0.61845415  0.38167056     0.03500
H1163       H  0.67414950  0.64066924  0.35547876     0.08600
H1164       H  0.62726368  0.61037959  0.39159691     0.07500
N1165       N  0.05659422  0.64667534  0.33181638    -0.26900
N1166       N  0.07694478  0.64442834  0.33408413    -0.34800
C1167       C  0.09575123  0.65818022  0.32471095     0.01400
C1168       C  0.08685957  0.66959806  0.31594264     0.07400
C1169       C  0.06194627  0.66200427  0.32082731    -0.05700
H1170       H  0.11474700  0.66010963  0.32459716     0.08100
H1171       H  0.04865579  0.66715141  0.31671381     0.09300
Cu1172     Cu  0.07899265  0.62301734  0.34965828     0.44200
Cu1173     Cu  0.02326622  0.62911823  0.34418627     0.42000
Cu1174     Cu  0.02578501  0.59190053  0.37320619     0.43900
N1175       N  0.07787761  0.60007798  0.36536375    -0.34300
N1176       N  0.05823423  0.58848221  0.37424023    -0.28600
C1177       C  0.06349503  0.57528518  0.38330070    -0.04700
C1178       C  0.08755396  0.57880838  0.37981336     0.07500
C1179       C  0.09616968  0.59464802  0.36845274     0.01300
H1180       H  0.05098947  0.56430090  0.39184656     0.09000
H1181       H  0.11453897  0.60200499  0.36296016     0.08100
N1182       N  0.99506709  0.59715080  0.36930436    -0.35800
N1183       N  0.99402050  0.61034825  0.35890022    -0.27900
C1184       C  0.97131953  0.60971920  0.35961706    -0.03200
C1185       C  0.95731576  0.59530198  0.37095711     0.05400
C1186       C  0.97306757  0.58775548  0.37686762     0.03500
H1187       H  0.96544026  0.61900995  0.35236061     0.08600
H1188       H  0.96923943  0.57672440  0.38614599     0.07500
N1189       N  0.82440624  0.57992391  0.39720664    -0.26900
N1190       N  0.82478640  0.56364271  0.40600426    -0.34800
C1191       C  0.84524707  0.56133296  0.40315522     0.01400
C1192       C  0.85864507  0.57695541  0.39201807     0.07400
C1193       C  0.84468638  0.58833827  0.38846850    -0.05700
H1194       H  0.85043253  0.54977547  0.40912271     0.08100
H1195       H  0.84880356  0.60181318  0.38021523     0.09300
Cu1196     Cu  0.79912568  0.54604822  0.42209568     0.44200
Cu1197     Cu  0.79731464  0.59112573  0.39775171     0.42000
Cu1198     Cu  0.75359302  0.56511273  0.42676841     0.43900
N1199       N  0.77260232  0.53240163  0.43793999    -0.34300
N1200       N  0.75549459  0.53939614  0.43956840    -0.28600
C1201       C  0.74164593  0.52851232  0.45097830    -0.04700
C1202       C  0.75065420  0.51404963  0.45696718     0.07500
C1203       C  0.77037741  0.51703466  0.44835611     0.01300
H1204       H  0.72668842  0.53164594  0.45475835     0.09000
H1205       H  0.78323440  0.50989141  0.44980026     0.08100
N1206       N  0.75192897  0.58839098  0.41217595    -0.35800
N1207       N  0.76720809  0.59753507  0.40131667    -0.27900
C1208       C  0.75811435  0.60866436  0.39307844    -0.03200
C1209       C  0.73595985  0.60625179  0.39908753     0.05400
C1210       C  0.73293557  0.59350460  0.41123930     0.03500
H1211       H  0.76593256  0.61615912  0.38308118     0.08600
H1212       H  0.71725529  0.58707128  0.41862686     0.07500
O1213       O  0.22804706  0.38372141  0.26496378    -0.72600
O1214       O  0.18105844  0.38636255  0.23752892    -0.73600
O1215       O  0.18337330  0.38759550  0.26619590    -0.62200
O1216       O  0.22524343  0.38173960  0.23652002    -0.70600
O1217       O  0.19851721  0.33795719  0.23708135    -0.70100
O1218       O  0.15640171  0.34385997  0.26678648    -0.61400
O1219       O  0.15382503  0.34264871  0.23773038    -0.73900
O1220       O  0.20170218  0.33997870  0.26595548    -0.72700
Cu1221     Cu  0.20525943  0.38627476  0.25128099     1.04600
Cu1222     Cu  0.17657907  0.33951194  0.25192774     1.04300
C1223       C  0.22269277  0.36174534  0.26982961     0.93600
C1224       C  0.16037016  0.36524567  0.23302139     0.92800
C1225       C  0.16340661  0.36661033  0.27134958     0.84900
C1226       C  0.21861116  0.35901715  0.23208124     0.91200
O1227       O  0.57090757  0.77339306  0.26489218    -0.72600
O1228       O  0.57179571  0.72840023  0.23586368    -0.73600
O1229       O  0.57384893  0.72849340  0.26429960    -0.62200
O1230       O  0.56918238  0.77357688  0.23633139    -0.70600
O1231       O  0.61325052  0.79930422  0.23538611    -0.70100
O1232       O  0.61795807  0.75420918  0.26390812    -0.61400
O1233       O  0.61587621  0.75355347  0.23500563    -0.73900
O1234       O  0.61496287  0.79964937  0.26439129    -0.72700
Cu1235     Cu  0.57000260  0.75013882  0.25036461     1.04600
Cu1236     Cu  0.61713034  0.77765340  0.24963634     1.04300
C1237       C  0.59258338  0.79344923  0.26940843     0.93600
C1238       C  0.59369234  0.73355362  0.23079674     0.92800
C1239       C  0.59644651  0.73410911  0.26861383     0.84900
C1240       C  0.59040175  0.79348314  0.23131384     0.91200
N1241       N  0.07134439  0.37150269  0.17545325    -0.26900
N1242       N  0.09327770  0.39430659  0.17206595    -0.34800
C1243       C  0.11320934  0.39861087  0.18024143     0.01400
C1244       C  0.10337162  0.37756966  0.18924794     0.07400
C1245       C  0.07677119  0.36071543  0.18580596    -0.05700
H1246       H  0.13335459  0.41589679  0.17964151     0.08100
H1247       H  0.06216869  0.34227943  0.19071094     0.09300
Cu1248     Cu  0.09518803  0.41963416  0.15703187     0.44200
Cu1249     Cu  0.03460798  0.35613425  0.16635486     0.42000
Cu1250     Cu  0.03252036  0.39985048  0.14217860     0.43900
N1251       N  0.09069801  0.44291384  0.14310131    -0.34300
N1252       N  0.06726328  0.43582103  0.13807039    -0.28600
C1253       C  0.07037780  0.45479096  0.12962425    -0.04700
C1254       C  0.09709831  0.47477898  0.12927088     0.07500
C1255       C  0.10949545  0.46661060  0.13785191     0.01300
H1256       H  0.05449607  0.45374005  0.12386119     0.09000
H1257       H  0.13058892  0.47700986  0.14001994     0.08100
N1258       N  0.00064709  0.36197158  0.14635801    -0.35800
N1259       N  0.00109917  0.34574599  0.15515101    -0.27900
C1260       C  0.97737951  0.32237418  0.15490522    -0.03200
C1261       C  0.96121573  0.32411557  0.14553006     0.05400
C1262       C  0.97679757  0.34948205  0.14027365     0.03500
H1263       H  0.97243323  0.30535524  0.16099274     0.08600
H1264       H  0.97171371  0.35808623  0.13222966     0.07500
N1265       N  0.58795453  0.88377595  0.17341429    -0.26900
N1266       N  0.56327340  0.86313443  0.17170501    -0.34800
C1267       C  0.55851766  0.84402392  0.18047385     0.01400
C1268       C  0.58128130  0.85286669  0.18807022     0.07400
C1269       C  0.59960597  0.87818828  0.18328882    -0.05700
H1270       H  0.53968292  0.82512775  0.18132836     0.08100
H1271       H  0.61955813  0.89196516  0.18703952     0.09300
Cu1272     Cu  0.53597648  0.86158106  0.15825424     0.44200
Cu1273     Cu  0.60390912  0.91924756  0.16297654     0.42000
Cu1274     Cu  0.55554279  0.92232078  0.14222547     0.43900
N1275       N  0.51096300  0.86552685  0.14551588    -0.34300
N1276       N  0.51807358  0.88839654  0.13994064    -0.28600
C1277       C  0.49815798  0.88495326  0.13207408    -0.04700
C1278       C  0.47754397  0.85859063  0.13271156     0.07500
C1279       C  0.48630047  0.84675488  0.14127242     0.01300
H1280       H  0.49907045  0.90022431  0.12588962     0.09000
H1281       H  0.47583273  0.82598321  0.14392157     0.08100
N1282       N  0.59497202  0.95291683  0.14417104    -0.35800
N1283       N  0.61275274  0.95211660  0.15167380    -0.27900
C1284       C  0.63654174  0.97515450  0.15024012    -0.03200
C1285       C  0.63350083  0.99104165  0.14132886     0.05400
C1286       C  0.60690474  0.97624422  0.13769669     0.03500
H1287       H  0.65480099  0.97956560  0.15496907     0.08600
H1288       H  0.59691483  0.98187401  0.13074403     0.07500
N1289       N  0.74804787  0.13484219  0.11693637    -0.26900
N1290       N  0.73010588  0.13174946  0.10804667    -0.34800
C1291       C  0.70774422  0.10768327  0.10963202     0.01400
C1292       C  0.71168964  0.09469473  0.11996331     0.07400
C1293       C  0.73749597  0.11265266  0.12441790    -0.05700
H1294       H  0.68981756  0.10062798  0.10380828     0.08100
H1295       H  0.74792499  0.10985910  0.13247305     0.09300
Cu1296     Cu  0.73578053  0.15952159  0.09389308     0.44200
Cu1297     Cu  0.78556699  0.16934236  0.11877313     0.42000
Cu1298     Cu  0.79647679  0.22199996  0.09602130     0.43900
N1299       N  0.74643444  0.18926390  0.08001421    -0.34300
N1300       N  0.76897252  0.21269525  0.08093588    -0.28600
C1301       C  0.77179638  0.22705741  0.06993586    -0.04700
C1302       C  0.74995433  0.21185511  0.06158378     0.07500
C1303       C  0.73423956  0.18795988  0.06836331     0.01300
H1304       H  0.78913380  0.24664476  0.06791617     0.09000
H1305       H  0.71626641  0.17025742  0.06473777     0.08100
N1306       N  0.82319682  0.22621550  0.11055749    -0.35800
N1307       N  0.81973266  0.20725315  0.11874608    -0.27900
C1308       C  0.84097883  0.21721577  0.12700682    -0.03200
C1309       C  0.85856587  0.24376381  0.12385224     0.05400
C1310       C  0.84659095  0.24863895  0.11334699     0.03500
H1311       H  0.84290285  0.20613823  0.13500144     0.08600
H1312       H  0.85420257  0.26719597  0.10809939     0.07500
N1313       N  0.29434055  0.34703706  0.16942737    -0.26900
N1314       N  0.30101207  0.37160084  0.16744124    -0.34800
C1315       C  0.29110416  0.37858402  0.17747415     0.01400
C1316       C  0.27757200  0.35753099  0.18634742     0.07400
C1317       C  0.27977489  0.33766821  0.18086085    -0.05700
H1318       H  0.29337931  0.39760397  0.17810716     0.08100
H1319       H  0.27174461  0.31805907  0.18495557     0.09300
Cu1320     Cu  0.32352588  0.39551903  0.15149442     0.44200
Cu1321     Cu  0.30604088  0.32836175  0.15632251     0.42000
Cu1322     Cu  0.34528195  0.36973945  0.12680239     0.43900
N1323       N  0.34698644  0.41791202  0.13539446    -0.34300
N1324       N  0.35527276  0.40849094  0.12602387    -0.28600
C1325       C  0.36961605  0.42755079  0.11674828    -0.04700
C1326       C  0.37032148  0.44996308  0.12060545     0.07500
C1327       C  0.35573020  0.44312770  0.13242149     0.01300
H1328       H  0.37829905  0.42509996  0.10775559     0.09000
H1329       H  0.35126048  0.45538262  0.13824251     0.08100
N1330       N  0.33412307  0.33107343  0.13034479    -0.35800
N1331       N  0.32054830  0.31626411  0.14089736    -0.27900
C1332       C  0.31819626  0.29281528  0.13992936    -0.03200
C1333       C  0.33091594  0.29287734  0.12820416     0.05400
C1334       C  0.34062352  0.31746038  0.12242170     0.03500
H1335       H  0.30851682  0.27727228  0.14742889     0.08600
H1336       H  0.35178329  0.32513231  0.11311449     0.07500
N1337       N  0.28964591  0.89281546  0.17007022    -0.26900
N1338       N  0.29861831  0.87715439  0.17010713    -0.34800
C1339       C  0.28953593  0.86171564  0.18112955     0.01400
C1340       C  0.27413446  0.86798421  0.18846629     0.07400
C1341       C  0.27445239  0.88767849  0.18110347    -0.05700
H1342       H  0.29334644  0.84655386  0.18338347     0.08100
H1343       H  0.26434620  0.89747689  0.18353019     0.09300
Cu1344     Cu  0.32234363  0.87666522  0.15526398     0.44200
Cu1345     Cu  0.29796430  0.91953900  0.15475219     0.42000
Cu1346     Cu  0.33908892  0.92006259  0.12719515     0.43900
N1347       N  0.34633585  0.87923133  0.13967343    -0.34300
N1348       N  0.35291371  0.89550453  0.12931009    -0.28600
C1349       C  0.36726795  0.89132231  0.12048720    -0.04700
C1350       C  0.36957559  0.87129049  0.12556761     0.07500
C1351       C  0.35611386  0.86412612  0.13773756     0.01300
H1352       H  0.37406354  0.90092941  0.11074391     0.09000
H1353       H  0.35247267  0.84815655  0.14433612     0.08100
N1354       N  0.32240440  0.94229334  0.12748197    -0.35800
N1355       N  0.30793561  0.94242073  0.13751617    -0.27900
C1356       C  0.30149263  0.96000030  0.13472982    -0.03200
C1357       C  0.31229831  0.97142512  0.12230044     0.05400
C1358       C  0.32544236  0.95970993  0.11801796     0.03500
H1359       H  0.29010505  0.96437358  0.14139097     0.08600
H1360       H  0.33746547  0.96434789  0.10902060     0.07500
N1361       N  0.37633341  0.17438090  0.05330768    -0.26900
N1362       N  0.37626822  0.15249195  0.05319432    -0.34800
C1363       C  0.38843464  0.15197955  0.04194128     0.01400
C1364       C  0.39645538  0.17462488  0.03452924     0.07400
C1365       C  0.38844387  0.18841606  0.04205041    -0.05700
H1366       H  0.39107969  0.13616867  0.03933260     0.08100
H1367       H  0.39182635  0.20755545  0.03976248     0.09300
Cu1368     Cu  0.35965217  0.12449685  0.06833241     0.44200
Cu1369     Cu  0.36139177  0.18434521  0.06930231     0.42000
Cu1370     Cu  0.33202043  0.13835249  0.09746665     0.43900
N1371       N  0.34057240  0.09869368  0.08421002    -0.34300
N1372       N  0.33013336  0.10341564  0.09467848    -0.28600
C1373       C  0.31975452  0.08274672  0.10321935    -0.04700
C1374       C  0.32408299  0.06413637  0.09792974     0.07500
C1375       C  0.33724704  0.07500091  0.08581881     0.01300
H1376       H  0.31005902  0.08174549  0.11260748     0.09000
H1377       H  0.34477441  0.06681934  0.07885108     0.08100
N1378       N  0.33870491  0.17581012  0.09753368    -0.35800
N1379       N  0.34929423  0.19227861  0.08717820    -0.27900
C1380       C  0.35159219  0.21503179  0.09030882    -0.03200
C1381       C  0.34215739  0.21300506  0.10331725     0.05400
C1382       C  0.33392292  0.18772220  0.10756511     0.03500
H1383       H  0.35925197  0.23164198  0.08345615     0.08600
H1384       H  0.32539778  0.17874065  0.11726349     0.07500
N1385       N  0.29164045  0.76026968  0.05701998    -0.26900
N1386       N  0.27846966  0.74769406  0.06811560    -0.34800
C1387       C  0.29498102  0.75809331  0.07875949     0.01400
C1388       C  0.31967540  0.77811994  0.07409552     0.07400
C1389       C  0.31695875  0.77904469  0.06027923    -0.05700
H1390       H  0.28996931  0.75031179  0.08894833     0.08100
H1391       H  0.33257852  0.79118790  0.05306427     0.09300
Cu1392     Cu  0.24089066  0.71334376  0.06795855     0.44200
Cu1393     Cu  0.27545497  0.74836267  0.03796477     0.42000
Cu1394     Cu  0.21476090  0.68154833  0.03590883     0.43900
N1395       N  0.20961355  0.67435780  0.06599468    -0.34300
N1396       N  0.20070818  0.66201905  0.05427971    -0.28600
C1397       C  0.18308607  0.63599654  0.05661946    -0.04700
C1398       C  0.18086560  0.63203470  0.07048009     0.07500
C1399       C  0.19787042  0.65672029  0.07607982     0.01300
H1400       H  0.17336621  0.62101451  0.04885190     0.09000
H1401       H  0.20255286  0.66127110  0.08668712     0.08100
N1402       N  0.23223302  0.70732882  0.01966493    -0.35800
N1403       N  0.25415523  0.73136991  0.02044295    -0.27900
C1404       C  0.25946194  0.74302534  0.00825311    -0.03200
C1405       C  0.23979430  0.72559317  0.99931906     0.05400
C1406       C  0.22296294  0.70311022  0.00693734     0.03500
H1407       H  0.27649122  0.76274545  0.00617689     0.08600
H1408       H  0.20484703  0.68519135  0.00361083     0.07500
N1409       N  0.14005363  0.52000260  0.10106817    -0.36300
N1410       N  0.16219344  0.56455364  0.08218286    -0.56800
N1411       N  0.13671241  0.58563585  0.09770574    -0.36200
N1412       N  0.11252788  0.53982828  0.11562828    -0.56800
C1413       C  0.14992330  0.51192101  0.09136710     0.27300
C1414       C  0.12345257  0.49864828  0.10882877     0.27300
C1415       C  0.14627623  0.60271441  0.08715029     0.27300
C1416       C  0.11933167  0.58924198  0.10445411     0.27300
C1417       C  0.17630039  0.55421116  0.07843562     0.36000
C1418       C  0.17452724  0.58893724  0.07654776     0.36000
C1419       C  0.10648394  0.51933849  0.12384557     0.36000
C1420       C  0.10505985  0.55435509  0.12219693     0.36000
C1421       C  0.13969929  0.48517100  0.09308285    -0.21500
C1422       C  0.12290524  0.47677845  0.10404594    -0.21500
C1423       C  0.13500825  0.61751869  0.08722575    -0.21500
C1424       C  0.11807287  0.60908364  0.09813268    -0.21500
C1425       C  0.19727575  0.57181005  0.07011311    -0.22600
C1426       C  0.19622215  0.59385299  0.06896110    -0.22600
C1427       C  0.09484812  0.52065536  0.13564507    -0.22600
C1428       C  0.09387555  0.54278042  0.13459489    -0.22600
C1429       C  0.16968084  0.52855268  0.08181248    -0.17900
C1430       C  0.10982729  0.49859357  0.12050401    -0.17900
C1431       C  0.10624128  0.57664939  0.11672454    -0.17900
C1432       C  0.16634353  0.60672973  0.07804638    -0.17900
H1433       H  0.14408740  0.47293598  0.08719353     0.15000
H1434       H  0.11183251  0.45687151  0.10812958     0.15000
H1435       H  0.13890163  0.63310795  0.08026297     0.15000
H1436       H  0.10664688  0.61718647  0.10117098     0.15000
H1437       H  0.21185079  0.56909875  0.06536066     0.13300
H1438       H  0.21002917  0.61152307  0.06326532     0.13300
H1439       H  0.08748561  0.50691354  0.14405458     0.13300
H1440       H  0.08543169  0.54924443  0.14204015     0.13300
H1441       H  0.14687569  0.53953421  0.10326000     0.26500
H1442       H  0.14415570  0.57467269  0.10106416     0.26500
N1443       N  0.44193327  0.74647248  0.06833854    -0.26900
N1444       N  0.43278221  0.73071229  0.07905333    -0.34800
C1445       C  0.42273148  0.74001562  0.08786227     0.01400
C1446       C  0.42560705  0.76249874  0.08236063     0.07400
C1447       C  0.43779290  0.76604051  0.07000753    -0.05700
H1448       H  0.41388391  0.73102477  0.09751291     0.08100
H1449       H  0.44339585  0.78176268  0.06280041     0.09300
Cu1450     Cu  0.43396559  0.69703658  0.08128168     0.44200
Cu1451     Cu  0.46022475  0.74160718  0.05189112     0.42000
Cu1452     Cu  0.46615952  0.68585975  0.05379493     0.43900
N1453       N  0.43802354  0.66492295  0.08046890    -0.34300
N1454       N  0.45018216  0.66123583  0.07042361    -0.28600
C1455       C  0.44898411  0.63860378  0.07249995    -0.04700
C1456       C  0.43545448  0.62749940  0.08443199     0.07500
C1457       C  0.42857720  0.64452096  0.08919516     0.01300
H1458       H  0.45643389  0.63029992  0.06555784     0.09000
H1459       H  0.41687876  0.64184131  0.09809880     0.08100
N1460       N  0.48062976  0.71222750  0.03781499    -0.35800
N1461       N  0.47844660  0.73278057  0.03699012    -0.27900
C1462       C  0.48985369  0.74591828  0.02541140    -0.03200
C1463       C  0.49968118  0.73291083  0.01860598     0.05400
C1464       C  0.49346343  0.71168102  0.02684123     0.03500
H1465       H  0.49125551  0.76384631  0.02236338     0.08600
H1466       H  0.49768798  0.69669685  0.02496550     0.07500
N1467       N  0.42842972  0.81165537  0.10669942    -0.36300
N1468       N  0.41372776  0.84631444  0.11862789    -0.56800
N1469       N  0.36850448  0.82425374  0.10021978    -0.36200
N1470       N  0.38459387  0.79145314  0.08739263    -0.56800
C1471       C  0.45058855  0.82815245  0.11404115     0.27300
C1472       C  0.43472438  0.79863698  0.09796606     0.27300
C1473       C  0.36481407  0.84146330  0.10697801     0.27300
C1474       C  0.34922109  0.81222622  0.09071773     0.27300
C1475       C  0.43439391  0.85247183  0.12679832     0.36000
C1476       C  0.40176017  0.85779151  0.12400600     0.36000
C1477       C  0.39337117  0.77587037  0.08394414     0.36000
C1478       C  0.36126937  0.78179974  0.08082180     0.36000
C1479       C  0.47099141  0.82521124  0.11003998    -0.21500
C1480       C  0.46094539  0.80652026  0.09997351    -0.21500
C1481       C  0.34285745  0.84038696  0.10156677    -0.21500
C1482       C  0.33316537  0.82211561  0.09131532    -0.21500
C1483       C  0.43577288  0.86818807  0.13739227    -0.22600
C1484       C  0.41517580  0.87161067  0.13561231    -0.22600
C1485       C  0.37589460  0.75658908  0.07488428    -0.22600
C1486       C  0.35555499  0.76029930  0.07292137    -0.22600
C1487       C  0.45297432  0.84544662  0.12444793    -0.17900
C1488       C  0.41740775  0.77931971  0.08843869    -0.17900
C1489       C  0.34464817  0.79159506  0.08196601    -0.17900
C1490       C  0.37941262  0.85672797  0.11845006    -0.17900
H1491       H  0.49116679  0.83557230  0.11389037     0.15000
H1492       H  0.47185409  0.79973879  0.09462721     0.15000
H1493       H  0.33399438  0.85095336  0.10482631     0.15000
H1494       H  0.31582012  0.81634809  0.08520683     0.15000
H1495       H  0.45023241  0.87651998  0.14550951     0.13300
H1496       H  0.41078775  0.88316891  0.14209417     0.13300
H1497       H  0.37751676  0.74132009  0.07022795     0.13300
H1498       H  0.33834817  0.74823604  0.06653145     0.13300
H1499       H  0.40946407  0.80748472  0.10850202     0.26500
H1500       H  0.38225123  0.81966915  0.10251086     0.26500
N1501       N  0.38730492  0.55474362  0.09095651    -0.36300
N1502       N  0.36909715  0.50066413  0.09921152    -0.56800
N1503       N  0.42175331  0.52067516  0.11057849    -0.36200
N1504       N  0.43965042  0.57476418  0.10219889    -0.56800
C1505       C  0.36398731  0.54062295  0.08415008     0.27300
C1506       C  0.40106178  0.57939668  0.08552190     0.27300
C1507       C  0.40872193  0.49535673  0.11517709     0.27300
C1508       C  0.44627477  0.53416833  0.11632027     0.27300
C1509       C  0.34582463  0.49602666  0.09443433     0.36000
C1510       C  0.36320227  0.47838462  0.10572380     0.36000
C1511       C  0.44411283  0.59804940  0.09772939     0.36000
C1512       C  0.46190085  0.58050048  0.10881496     0.36000
C1513       C  0.36290938  0.55649487  0.07435994    -0.21500
C1514       C  0.38620386  0.58095137  0.07526969    -0.21500
C1515       C  0.42565225  0.49248613  0.12344001    -0.21500
C1516       C  0.44921842  0.51684615  0.12417160    -0.21500
C1517       C  0.32507439  0.47054396  0.09777020    -0.22600
C1518       C  0.33608653  0.45931484  0.10480565    -0.22600
C1519       C  0.46940942  0.61872318  0.10139968    -0.22600
C1520       C  0.48073873  0.60764590  0.10833365    -0.22600
C1521       C  0.34301769  0.51418827  0.08685683    -0.17900
C1522       C  0.42637874  0.60084903  0.08968390    -0.17900
C1523       C  0.46557566  0.56190435  0.11548737    -0.17900
C1524       C  0.38146133  0.47515969  0.11308348    -0.17900
H1525       H  0.34699448  0.55104698  0.06723947     0.15000
H1526       H  0.39160118  0.59790796  0.06900681     0.15000
H1527       H  0.42120541  0.47489405  0.12883419     0.15000
H1528       H  0.46619661  0.52139723  0.13027499     0.15000
H1529       H  0.30408933  0.46100609  0.09554796     0.13300
H1530       H  0.32517403  0.43950627  0.10900863     0.13300
H1531       H  0.47890800  0.63957142  0.09912431     0.13300
H1532       H  0.50070726  0.61849716  0.11245792     0.13300
H1533       H  0.39211447  0.54874697  0.09971498     0.26500
H1534       H  0.41446327  0.52835772  0.10388912     0.26500
N1535       N  0.19626709  0.49541269  0.06370722    -0.26900
N1536       N  0.21603955  0.51053210  0.07215179    -0.34800
C1537       C  0.20989543  0.52515072  0.07949140     0.01400
C1538       C  0.18511619  0.51896723  0.07547070     0.07400
C1539       C  0.17696083  0.50007714  0.06545561    -0.05700
H1540       H  0.22214007  0.53857414  0.08749741     0.08100
H1541       H  0.15805126  0.48981783  0.06019773     0.09300
Cu1542     Cu  0.24948729  0.50929250  0.07441868     0.44200
Cu1543     Cu  0.19560065  0.46769691  0.05100957     0.42000
Cu1544     Cu  0.24926560  0.45777595  0.05670425     0.43900
N1545       N  0.27957116  0.50262004  0.07601878    -0.34300
N1546       N  0.27925402  0.48331511  0.06957552    -0.28600
C1547       C  0.30157602  0.48421404  0.07246573    -0.04700
C1548       C  0.31654305  0.50505279  0.08123437     0.07500
C1549       C  0.30210678  0.51636563  0.08327020     0.01300
H1550       H  0.30668009  0.47096255  0.06834223     0.09000
H1551       H  0.30767251  0.53341950  0.08946240     0.08100
N1552       N  0.22005011  0.43774003  0.04245928    -0.35800
N1553       N  0.20050142  0.44123951  0.04015286    -0.27900
C1554       C  0.18633060  0.42637829  0.02946004    -0.03200
C1555       C  0.19771742  0.41308460  0.02484425     0.05400
C1556       C  0.21902460  0.42081837  0.03334422     0.03500
H1557       H  0.16986850  0.42636036  0.02499277     0.08600
H1558       H  0.23329188  0.41520799  0.03274872     0.07500
N1559       N  0.59681776  0.64827533  0.17028273    -0.26900
N1560       N  0.57291912  0.64370624  0.16811942    -0.34800
C1561       C  0.56761439  0.65596159  0.17762007     0.01400
C1562       C  0.58918027  0.66904997  0.18628530     0.07400
C1563       C  0.60744127  0.66377600  0.18130877    -0.05700
H1564       H  0.54932318  0.65543257  0.17809287     0.08100
H1565       H  0.62672827  0.67019635  0.18550209     0.09300
Cu1566     Cu  0.54760785  0.62064810  0.15275612     0.44200
Cu1567     Cu  0.61281909  0.63232400  0.15809267     0.42000
Cu1568     Cu  0.56772564  0.58852434  0.13092628     0.43900
N1569       N  0.52359017  0.59569262  0.13753476    -0.34300
N1570       N  0.53086055  0.58351273  0.12934160    -0.28600
C1571       C  0.51121872  0.56912131  0.12034984    -0.04700
C1572       C  0.49073756  0.57261159  0.12308297     0.07500
C1573       C  0.49918302  0.58945936  0.13406245     0.01300
H1574       H  0.51199705  0.55746801  0.11229032     0.09000
H1575       H  0.48858245  0.59701486  0.13899353     0.08100
N1576       N  0.60550888  0.59675518  0.13461478    -0.35800
N1577       N  0.62184258  0.61241071  0.14427350    -0.27900
C1578       C  0.64435163  0.61259367  0.14370945    -0.03200
C1579       C  0.64196410  0.59608376  0.13328353     0.05400
C1580       C  0.61713902  0.58662893  0.12769876     0.03500
H1581       H  0.66100187  0.62357519  0.15056094     0.08600
H1582       H  0.60810841  0.57356402  0.11911377     0.07500
N1583       N  0.06105677  0.65529781  0.17151346    -0.26900
N1584       N  0.07966305  0.64998662  0.17097699    -0.34800
C1585       C  0.09642143  0.66181027  0.18142006     0.01400
C1586       C  0.08811890  0.67537440  0.18891276     0.07400
C1587       C  0.06558036  0.67078166  0.18230900    -0.05700
H1588       H  0.11371580  0.66097174  0.18324734     0.08100
H1589       H  0.05307941  0.67775131  0.18519447     0.09300
Cu1590     Cu  0.08246041  0.62776451  0.15596947     0.44200
Cu1591     Cu  0.03024779  0.64096886  0.15765644     0.42000
Cu1592     Cu  0.03259878  0.60286207  0.13000160     0.43900
N1593       N  0.08237286  0.60695366  0.13934059    -0.34300
N1594       N  0.06404321  0.59787230  0.12975662    -0.28600
C1595       C  0.06956021  0.58558256  0.12030223    -0.04700
C1596       C  0.09251916  0.58712690  0.12412822     0.07500
C1597       C  0.10014090  0.60077957  0.13623389     0.01300
H1598       H  0.05783663  0.57634995  0.11128699     0.09000
H1599       H  0.11737612  0.60595806  0.14228448     0.08100
N1600       N  0.00233453  0.60918898  0.13271567    -0.35800
N1601       N  0.00131989  0.62297898  0.14277620    -0.27900
C1602       C  0.97881101  0.62266761  0.14168970    -0.03200
C1603       C  0.96485842  0.60781291  0.13042476     0.05400
C1604       C  0.98058198  0.59977844  0.12495658     0.03500
H1605       H  0.97290063  0.63222743  0.14872774     0.08600
H1606       H  0.97686452  0.58823626  0.11590213     0.07500
N1607       N  0.82805740  0.58462096  0.10444803    -0.26900
N1608       N  0.83205302  0.57314359  0.09421527    -0.34800
C1609       C  0.85508226  0.57486962  0.09612602     0.01400
C1610       C  0.86629079  0.58807502  0.10815442     0.07400
C1611       C  0.84859586  0.59405022  0.11315136    -0.05700
H1612       H  0.86289566  0.56677093  0.08928429     0.08100
H1613       H  0.84986011  0.60347304  0.12266913     0.09300
Cu1614     Cu  0.80587043  0.55424662  0.07831733     0.44200
Cu1615     Cu  0.79365522  0.58460126  0.10660273     0.42000
Cu1616     Cu  0.74338697  0.54746693  0.08028428     0.43900
N1617       N  0.77749371  0.53666123  0.06321637    -0.34300
N1618       N  0.75441545  0.53452352  0.06376397    -0.28600
C1619       C  0.74095422  0.52350978  0.05220527    -0.04700
C1620       C  0.75633475  0.51832660  0.04402357     0.07500
C1621       C  0.77930379  0.52684210  0.05139064     0.01300
H1622       H  0.72143532  0.51953971  0.04998010     0.09000
H1623       H  0.79644821  0.52665025  0.04822814     0.08100
N1624       N  0.73744550  0.56336312  0.09739389    -0.35800
N1625       N  0.75563181  0.57741345  0.10673929    -0.27900
C1626       C  0.74515190  0.58547008  0.11602371    -0.03200
C1627       C  0.71907887  0.57594410  0.11234629     0.05400
C1628       C  0.71496247  0.56196578  0.10051708     0.03500
H1629       H  0.75574604  0.59718284  0.12482592     0.08600
H1630       H  0.69714977  0.55212172  0.09435230     0.07500
O1631       O  0.19245128  0.80972132  0.23928818    -0.72600
O1632       O  0.14429047  0.75843734  0.26791114    -0.73600
O1633       O  0.19304955  0.80879190  0.26823380    -0.62200
O1634       O  0.14380607  0.75927670  0.23909178    -0.70600
O1635       O  0.16673860  0.74043352  0.23874407    -0.70100
O1636       O  0.21522115  0.78920108  0.26746314    -0.61400
O1637       O  0.16701139  0.73940327  0.26716959    -0.73900
O1638       O  0.21508201  0.79052309  0.23895999    -0.72700
Cu1639     Cu  0.16762645  0.78481309  0.25364528     1.04600
Cu1640     Cu  0.19178298  0.76428186  0.25305412     1.04300
C1641       C  0.21119407  0.80797933  0.23449088     0.93600
C1642       C  0.14816779  0.74079576  0.27211192     0.92800
C1643       C  0.21169762  0.80640740  0.27261846     0.84900
C1644       C  0.14759922  0.74190322  0.23434293     0.91200
C1645       C  0.11606741  0.68512323  0.20939136    -0.20900
C1646       C  0.10114559  0.69134972  0.20120087    -0.09000
C1647       C  0.09995497  0.71332501  0.20461102     0.29900
C1648       C  0.11440690  0.72926775  0.21568333    -0.20900
C1649       C  0.13025995  0.72361356  0.22350518    -0.09000
C1650       C  0.13039824  0.70092987  0.22042205     0.29900
F1651       F  0.14450544  0.69398015  0.22799879    -0.19500
H1652       H  0.11682906  0.66798097  0.20721867     0.18200
H1653       H  0.11391157  0.74657329  0.21784194     0.18200
F1654       F  0.08603677  0.72029008  0.19690097    -0.19500
C1655       C  0.93057147  0.61910724  0.12838300    -0.20900
C1656       C  0.93899188  0.60208683  0.12525933    -0.09000
C1657       C  0.92259169  0.57984953  0.11704645     0.29900
C1658       C  0.89901056  0.57548343  0.11167888    -0.20900
C1659       C  0.89092857  0.59284156  0.11448644    -0.09000
C1660       C  0.90675011  0.61455212  0.12309797     0.29900
F1661       F  0.89985009  0.63197403  0.12601190    -0.19500
H1662       H  0.94273809  0.63638248  0.13466349     0.18200
H1663       H  0.88687145  0.55818478  0.10540564     0.18200
F1664       F  0.92882660  0.56183225  0.11441166    -0.19500
C1665       C  0.67232399  0.56157908  0.11721501    -0.20900
C1666       C  0.69970337  0.58037516  0.11894378    -0.09000
C1667       C  0.70793294  0.60364355  0.12626590     0.29900
C1668       C  0.68902926  0.60836758  0.13117002    -0.20900
C1669       C  0.66167158  0.59002763  0.12890622    -0.09000
C1670       C  0.65348206  0.56620194  0.12216212     0.29900
F1671       F  0.62727838  0.54709831  0.12045370    -0.19500
H1672       H  0.66538998  0.54318578  0.11193867     0.18200
H1673       H  0.69590995  0.62683615  0.13635064     0.18200
F1674       F  0.73417432  0.62247804  0.12810738    -0.19500
C1675       C  0.23456190  0.85175980  0.20337238    -0.20900
C1676       C  0.25921979  0.85497226  0.20096067    -0.09000
C1677       C  0.26881255  0.84444821  0.21023444     0.29900
C1678       C  0.25335715  0.82984875  0.22132493    -0.20900
C1679       C  0.22820972  0.82567723  0.22346719    -0.09000
C1680       C  0.21908851  0.83718369  0.21451847     0.29900
F1681       F  0.19467319  0.83319304  0.21609643    -0.19500
H1682       H  0.22674654  0.85961514  0.19633331     0.18200
H1683       H  0.26099203  0.82154207  0.22818949     0.18200
F1684       F  0.29318929  0.84835393  0.20865266    -0.19500
C1685       C  0.31142899  0.01208241  0.12390580    -0.20900
C1686       C  0.31263354  0.99366358  0.11584628    -0.09000
C1687       C  0.31549450  0.99753595  0.10177955     0.29900
C1688       C  0.31821183  0.02000982  0.09602925    -0.20900
C1689       C  0.31831015  0.03916262  0.10415123    -0.09000
C1690       C  0.31436068  0.03467291  0.11818740     0.29900
F1691       F  0.31474685  0.05259996  0.12658740    -0.19500
H1692       H  0.30940955  0.00967345  0.13477606     0.18200
H1693       H  0.32051732  0.02246772  0.08517435     0.18200
F1694       F  0.31557602  0.97962782  0.09353849    -0.19500
C1695       C  0.35561014  0.27941035  0.11389782    -0.20900
C1696       C  0.33454876  0.27208566  0.12289842    -0.09000
C1697       C  0.31716739  0.24509634  0.12628366     0.29900
C1698       C  0.32025490  0.22596504  0.12023366    -0.20900
C1699       C  0.34057015  0.23336481  0.11071871    -0.09000
C1700       C  0.35868647  0.26040471  0.10790215     0.29900
F1701       F  0.37968213  0.26867882  0.09947496    -0.19500
H1702       H  0.36993362  0.30001202  0.11143994     0.18200
H1703       H  0.30610160  0.20526505  0.12261258     0.18200
F1704       F  0.29650601  0.23693154  0.13492078    -0.19500
C1705       C  0.69468798  0.06108389  0.13858880    -0.20900
C1706       C  0.69222416  0.06781156  0.12530052    -0.09000
C1707       C  0.67077278  0.04871751  0.11729823     0.29900
C1708       C  0.65191374  0.02391471  0.12264305    -0.20900
C1709       C  0.65416323  0.01733457  0.13595084    -0.09000
C1710       C  0.67588311  0.03605313  0.14388552     0.29900
F1711       F  0.67841031  0.03060268  0.15689980    -0.19500
H1712       H  0.71085000  0.07537552  0.14502019     0.18200
H1713       H  0.63567613  0.00962562  0.11623524     0.18200
F1714       F  0.66821378  0.05354197  0.10417961    -0.19500
C1715       C  0.92514762  0.27625445  0.14206082    -0.20900
C1716       C  0.93397241  0.30313258  0.14119540    -0.09000
C1717       C  0.91693825  0.30985937  0.13555220     0.29900
C1718       C  0.89236660  0.29030416  0.13022837    -0.20900
C1719       C  0.88396935  0.26356530  0.13050205    -0.09000
C1720       C  0.90032433  0.25655154  0.13676779     0.29900
F1721       F  0.89302903  0.23094207  0.13722248    -0.19500
H1722       H  0.93785001  0.27052436  0.14637630     0.18200
H1723       H  0.87983601  0.29622602  0.12589435     0.18200
F1724       F  0.92375955  0.33531956  0.13528175    -0.19500
C1725       C  0.61661952  0.72205226  0.21360225    -0.20900
C1726       C  0.59298896  0.71627277  0.21991449    -0.09000
C1727       C  0.56849720  0.69404833  0.21547989     0.29900
C1728       C  0.56774978  0.67861636  0.20481901    -0.20900
C1729       C  0.59120938  0.68476057  0.19826043    -0.09000
C1730       C  0.61580512  0.70644971  0.20287976     0.29900
F1731       F  0.63893114  0.71334183  0.19669583    -0.19500
H1732       H  0.63574218  0.73896971  0.21678611     0.18200
H1733       H  0.54856225  0.66177215  0.20166111     0.18200
F1734       F  0.54503924  0.68721631  0.22127416    -0.19500
C1735       C  0.61091064  0.82771182  0.21290906    -0.20900
C1736       C  0.58838592  0.80954735  0.22060172    -0.09000
C1737       C  0.56383133  0.80641994  0.21767218     0.29900
C1738       C  0.56189941  0.82075681  0.20717996    -0.20900
C1739       C  0.58427997  0.83861330  0.19938594    -0.09000
C1740       C  0.60893868  0.84212081  0.20239338     0.29900
F1741       F  0.63089168  0.85860914  0.19485733    -0.19500
H1742       H  0.63001702  0.83041727  0.21485234     0.18200
H1743       H  0.54275765  0.81795099  0.20521606     0.18200
F1744       F  0.54158556  0.78961005  0.22495412    -0.19500
C1745       C  0.10966674  0.34875285  0.20499983    -0.20900
C1746       C  0.11765548  0.37423749  0.20052612    -0.09000
C1747       C  0.13908021  0.39638402  0.20708618     0.29900
C1748       C  0.15232109  0.39305683  0.21770000    -0.20900
C1749       C  0.14471660  0.36764230  0.22209934    -0.09000
C1750       C  0.12307816  0.34539676  0.21562475     0.29900
F1751       F  0.11506527  0.32044180  0.21936707    -0.19500
H1752       H  0.09325712  0.33133604  0.20011551     0.18200
H1753       H  0.16873028  0.41064397  0.22247519     0.18200
F1754       F  0.14689257  0.42137774  0.20356287    -0.19500
C1755       C  0.24010155  0.33348868  0.20298834    -0.20900
C1756       C  0.26361778  0.35692975  0.19880141    -0.09000
C1757       C  0.27305145  0.38029282  0.20624220     0.29900
C1758       C  0.25850954  0.38051077  0.21714700    -0.20900
C1759       C  0.23433991  0.35745680  0.22101693    -0.09000
C1760       C  0.22548847  0.33366581  0.21399710     0.29900
F1761       F  0.20237440  0.31079679  0.21743939    -0.19500
H1762       H  0.23252282  0.31523382  0.19744534     0.18200
H1763       H  0.26620053  0.39896528  0.22251711     0.18200
F1764       F  0.29654095  0.40300338  0.20309285    -0.19500
C1765       C  0.09617082  0.70570598  0.29980430    -0.20900
C1766       C  0.10144473  0.68690630  0.30424469    -0.09000
C1767       C  0.12123920  0.68529535  0.29760278     0.29900
C1768       C  0.13591415  0.70265604  0.28710740    -0.20900
C1769       C  0.13123193  0.72196030  0.28287726    -0.09000
C1770       C  0.11090681  0.72314000  0.28923517     0.29900
F1771       F  0.10549016  0.74132363  0.28544855    -0.19500
H1772       H  0.08106688  0.70739759  0.30472771     0.18200
H1773       H  0.15113565  0.70095659  0.28232002     0.18200
F1774       F  0.12626587  0.66667604  0.30100709    -0.19500
C1775       C  0.92443575  0.60810783  0.37316474    -0.20900
C1776       C  0.93159827  0.59000179  0.37592114    -0.09000
C1777       C  0.91419849  0.56721838  0.38357622     0.29900
C1778       C  0.89032992  0.56292916  0.38846034    -0.20900
C1779       C  0.88335849  0.58131465  0.38597707    -0.09000
C1780       C  0.90070938  0.60400835  0.37820376     0.29900
F1781       F  0.89553907  0.62290311  0.37590585    -0.19500
H1782       H  0.93763125  0.62596741  0.36743445     0.18200
H1783       H  0.87728821  0.54504930  0.39419475     0.18200
F1784       F  0.91987300  0.54874728  0.38615423    -0.19500
C1785       C  0.62089580  0.72647810  0.28674073    -0.20900
C1786       C  0.59741192  0.71740017  0.27929226    -0.09000
C1787       C  0.57443631  0.69259038  0.28255804     0.29900
C1788       C  0.57471425  0.67784955  0.29331671    -0.20900
C1789       C  0.59776625  0.68729751  0.30112987    -0.09000
C1790       C  0.62113953  0.71161466  0.29758664     0.29900
F1791       F  0.64380581  0.72170146  0.30494268    -0.19500
H1792       H  0.63887641  0.74549347  0.28445123     0.18200
H1793       H  0.55660577  0.65893389  0.29557438     0.18200
F1794       F  0.55149052  0.68246861  0.27542994    -0.19500
C1795       C  0.70504241  0.63446363  0.37720542    -0.20900
C1796       C  0.67856447  0.61995626  0.38187720    -0.09000
C1797       C  0.67137753  0.60110055  0.39219951     0.29900
C1798       C  0.69025457  0.59714114  0.39771533    -0.20900
C1799       C  0.71674146  0.61164164  0.39312036    -0.09000
C1800       C  0.72401377  0.63042874  0.38276139     0.29900
F1801       F  0.74947186  0.64532342  0.37817883    -0.19500
H1802       H  0.71122271  0.64924140  0.36935475     0.18200
H1803       H  0.68370874  0.58203085  0.40540342     0.18200
F1804       F  0.64592157  0.58558024  0.39671345    -0.19500
C1805       C  0.22273874  0.83888025  0.29134604    -0.20900
C1806       C  0.22882259  0.82288493  0.28401968    -0.09000
C1807       C  0.25054295  0.82161508  0.28822370     0.29900
C1808       C  0.26529035  0.83552393  0.29959351    -0.20900
C1809       C  0.25898024  0.85112820  0.30701758    -0.09000
C1810       C  0.23766516  0.85290752  0.30276087     0.29900
F1811       F  0.23049836  0.86718188  0.30994311    -0.19500
H1812       H  0.20601127  0.84004814  0.28844453     0.18200
H1813       H  0.28185927  0.83413802  0.30255728     0.18200
F1814       F  0.25757013  0.80678321  0.28146916    -0.19500
C1815       C  0.38460649  0.03881418  0.38458599    -0.20900
C1816       C  0.36162752  0.02225475  0.37685038    -0.09000
C1817       C  0.34313339  0.02948686  0.37498571     0.29900
C1818       C  0.34759826  0.05261653  0.38089709    -0.20900
C1819       C  0.37023496  0.06867435  0.38891083    -0.09000
C1820       C  0.38888236  0.06171797  0.39059102     0.29900
F1821       F  0.41158065  0.07732280  0.39779017    -0.19500
H1822       H  0.39946949  0.03413931  0.38599017     0.18200
H1823       H  0.33288763  0.05753472  0.37955383     0.18200
F1824       F  0.32019876  0.01381973  0.36798320    -0.19500
C1825       C  0.28189355  0.38625266  0.29332216    -0.20900
C1826       C  0.27474071  0.36330545  0.30063454    -0.09000
C1827       C  0.25080008  0.33934090  0.29725022     0.29900
C1828       C  0.23417064  0.33875663  0.28706597    -0.20900
C1829       C  0.24100926  0.36197131  0.28006665    -0.09000
C1830       C  0.26539562  0.38572086  0.28320854     0.29900
F1831       F  0.27343979  0.40867944  0.27660801    -0.19500
H1832       H  0.30038127  0.40490075  0.29545581     0.18200
H1833       H  0.21560838  0.32019952  0.28488270     0.18200
F1834       F  0.24276651  0.31669086  0.30412100    -0.19500
C1835       C  0.35607557  0.26298455  0.39768748    -0.20900
C1836       C  0.35783117  0.24503342  0.38948510    -0.09000
C1837       C  0.35384159  0.24523825  0.37543592     0.29900
C1838       C  0.34929176  0.26375857  0.36981180    -0.20900
C1839       C  0.34873797  0.28242251  0.37802867    -0.09000
C1840       C  0.35158762  0.28139823  0.39209752     0.29900
F1841       F  0.34963771  0.29789075  0.40058420    -0.19500
H1842       H  0.35814438  0.26287516  0.40855140     0.18200
H1843       H  0.34710104  0.26405476  0.35895683     0.18200
F1844       F  0.35539338  0.22842325  0.36701572    -0.19500
C1845       C  0.61198105  0.84426074  0.29743879    -0.20900
C1846       C  0.58682747  0.83716993  0.30222846    -0.09000
C1847       C  0.56386156  0.81589452  0.29601982     0.29900
C1848       C  0.56612970  0.80210162  0.28539651    -0.20900
C1849       C  0.59121821  0.80903894  0.28060235    -0.09000
C1850       C  0.61424452  0.83034362  0.28676841     0.29900
F1851       F  0.63893297  0.83767277  0.28260764    -0.19500
H1852       H  0.62998601  0.86045588  0.30205227     0.18200
H1853       H  0.54798586  0.78593374  0.28086020     0.18200
F1854       F  0.53905857  0.80878178  0.29981793    -0.19500
C1855       C  0.69628186  0.06347743  0.36267944    -0.20900
C1856       C  0.69420773  0.06783326  0.37647014    -0.09000
C1857       C  0.67362963  0.04707513  0.38419987     0.29900
C1858       C  0.65525617  0.02287751  0.37815984    -0.20900
C1859       C  0.65714164  0.01865155  0.36438071    -0.09000
C1860       C  0.67793856  0.03906991  0.35666462     0.29900
F1861       F  0.67987608  0.03584122  0.34323260    -0.19500
H1862       H  0.71174403  0.07913787  0.35644230     0.18200
H1863       H  0.63964335  0.00722920  0.38435611     0.18200
F1864       F  0.67149518  0.04975081  0.39766797    -0.19500
C1865       C  0.14308909  0.39454861  0.29966546    -0.20900
C1866       C  0.12022624  0.37161753  0.30486557    -0.09000
C1867       C  0.11178541  0.34698871  0.29893626     0.29900
C1868       C  0.12577458  0.34559020  0.28801540    -0.20900
C1869       C  0.14853173  0.36857417  0.28277627    -0.09000
C1870       C  0.15712378  0.39314292  0.28880480     0.29900
F1871       F  0.17919637  0.41593101  0.28431917    -0.19500
H1872       H  0.15012050  0.41384437  0.30387448     0.18200
H1873       H  0.11880345  0.32635063  0.28371309     0.18200
F1874       F  0.09046774  0.32408362  0.30382364    -0.19500
C1875       C  0.91741140  0.30978485  0.36648206    -0.20900
C1876       C  0.93390083  0.30111304  0.36257342    -0.09000
C1877       C  0.92354023  0.27380116  0.36274242     0.29900
C1878       C  0.89743095  0.25574792  0.36711207    -0.20900
C1879       C  0.88136758  0.26460869  0.37149639    -0.09000
C1880       C  0.89142032  0.29178868  0.37089324     0.29900
F1881       F  0.87610901  0.30101485  0.37445679    -0.19500
H1882       H  0.92465657  0.33062308  0.36617535     0.18200
H1883       H  0.89017369  0.23491376  0.36759506     0.18200
F1884       F  0.93895012  0.26457897  0.35942250    -0.19500
C1885       C  0.24480842  0.75894171  0.96581505    -0.20900
C1886       C  0.22923206  0.73693551  0.95738730    -0.09000
C1887       C  0.21758558  0.71134753  0.96279606     0.29900
C1888       C  0.22139180  0.70795320  0.97636885    -0.20900
C1889       C  0.23672799  0.72991092  0.98487153    -0.09000
C1890       C  0.24843545  0.75557505  0.97943467     0.29900
F1891       F  0.26252600  0.77747939  0.98728184    -0.19500
H1892       H  0.25366004  0.77887054  0.96196323     0.18200
H1893       H  0.21244123  0.68798709  0.98016840     0.18200
F1894       F  0.20302776  0.68953847  0.95493492    -0.19500
C1895       C  0.31106503  0.90010015  0.85194364    -0.20900
C1896       C  0.33166635  0.91950078  0.86013851    -0.09000
C1897       C  0.33185269  0.91438941  0.87398806     0.29900
C1898       C  0.31179558  0.89026043  0.87948622    -0.20900
C1899       C  0.29120046  0.87068160  0.87132925    -0.09000
C1900       C  0.29106811  0.87574450  0.85743848     0.29900
F1901       F  0.27221308  0.85697775  0.84908461    -0.19500
H1902       H  0.31070829  0.90367337  0.84123290     0.18200
H1903       H  0.31220940  0.88712673  0.89023895     0.18200
F1904       F  0.35079402  0.93307036  0.88235822    -0.19500
C1905       C  0.07871773  0.68870196  0.86445620    -0.20900
C1906       C  0.09442837  0.68066837  0.87042091    -0.09000
C1907       C  0.08530599  0.65367821  0.87011860     0.29900
C1908       C  0.06043931  0.63506611  0.86457368    -0.20900
C1909       C  0.04405312  0.64282417  0.85918035    -0.09000
C1910       C  0.05371247  0.67001450  0.85891873     0.29900
F1911       F  0.03857223  0.67853125  0.85399860    -0.19500
H1912       H  0.08534788  0.70938956  0.86454050     0.18200
H1913       H  0.05393273  0.61441979  0.86460761     0.18200
F1914       F  0.10051894  0.64521685  0.87503159    -0.19500
C1915       C  0.42862969  0.17441073  0.01880710    -0.20900
C1916       C  0.41110123  0.18236378  0.02158583    -0.09000
C1917       C  0.40747737  0.19709253  0.01184081     0.29900
C1918       C  0.42088097  0.20326883  0.99947043    -0.20900
C1919       C  0.43813566  0.19496051  0.99661486    -0.09000
C1920       C  0.44215210  0.18072371  0.00650581     0.29900
F1921       F  0.45971539  0.17354256  0.00452990    -0.19500
H1922       H  0.43216477  0.16351533  0.02625838     0.18200
H1923       H  0.41733556  0.21414973  0.99201791     0.18200
F1924       F  0.39027013  0.20466722  0.01401356    -0.19500
C1925       C  0.73290008  0.50343465  0.00755294    -0.20900
C1926       C  0.74297377  0.48833246  0.00326912    -0.09000
C1927       C  0.75616793  0.48207074  0.01282473     0.29900
C1928       C  0.76007226  0.49165660  0.02605069    -0.20900
C1929       C  0.75049183  0.50716268  0.03018936    -0.09000
C1930       C  0.73643659  0.51262818  0.02086308     0.29900
F1931       F  0.72717989  0.52788580  0.02437556    -0.19500
H1932       H  0.72274196  0.50875600  0.00054225     0.18200
H1933       H  0.77052750  0.48676758  0.03312822     0.18200
F1934       F  0.76499993  0.46635330  0.00959490    -0.19500
C1935       C  0.52340856  0.75984715  0.98309989    -0.20900
C1936       C  0.54081364  0.75166082  0.98039075    -0.09000
C1937       C  0.54484630  0.73766978  0.99041682     0.29900
C1938       C  0.53156243  0.73190589  0.00280457    -0.20900
C1939       C  0.51398291  0.73989676  0.00548947    -0.09000
C1940       C  0.51002153  0.75398137  0.99547114     0.29900
F1941       F  0.49252229  0.76127407  0.99735772    -0.19500
H1942       H  0.51967294  0.77036201  0.97550609     0.18200
H1943       H  0.53533077  0.72138351  0.01037497     0.18200
F1944       F  0.56217407  0.73018132  0.98845911    -0.19500
C1945       C  0.59865985  0.65144325  0.88793939    -0.20900
C1946       C  0.62163080  0.65933684  0.88033513    -0.09000
C1947       C  0.64100566  0.68656690  0.87870815     0.29900
C1948       C  0.63756471  0.70536881  0.88484667    -0.20900
C1949       C  0.61495770  0.69737026  0.89279160    -0.09000
C1950       C  0.59527406  0.67018387  0.89409362     0.29900
F1951       F  0.57249367  0.66165008  0.90110137    -0.19500
H1952       H  0.58317229  0.63064594  0.88912411     0.18200
H1953       H  0.65303617  0.72619916  0.88375632     0.18200
F1954       F  0.66384629  0.69506039  0.87177540    -0.19500
C1955       C  0.63179751  0.90827820  0.90410412    -0.20900
C1956       C  0.62973636  0.88869929  0.89553837    -0.09000
C1957       C  0.63388763  0.89392463  0.88156709     0.29900
C1958       C  0.63957531  0.91811559  0.87636575    -0.20900
C1959       C  0.64094037  0.93737809  0.88493989    -0.09000
C1960       C  0.63731996  0.93229519  0.89892639     0.29900
F1961       F  0.63956753  0.95066154  0.90771107    -0.19500
H1962       H  0.62928244  0.90512942  0.91492219     0.18200
H1963       H  0.64204285  0.92140276  0.86555263     0.18200
F1964       F  0.63128490  0.87532808  0.87283793    -0.19500
C1965       C  0.71879440  0.21082964  0.02797229    -0.20900
C1966       C  0.74140306  0.22873089  0.02026886    -0.09000
C1967       C  0.76662970  0.24173878  0.02648550     0.29900
C1968       C  0.76905203  0.23655956  0.03997383    -0.20900
C1969       C  0.74653677  0.21823686  0.04757829    -0.09000
C1970       C  0.72124571  0.20558680  0.04146908     0.29900
F1971       F  0.69880284  0.18841616  0.04852067    -0.19500
H1972       H  0.69905812  0.20083165  0.02357625     0.18200
H1973       H  0.78883101  0.24634198  0.04429491     0.18200
F1974       F  0.78921195  0.25855898  0.01946538    -0.19500
C1975       C  0.21131824  0.39733492  0.00525316    -0.20900
C1976       C  0.19096424  0.39680067  0.01255310    -0.09000
C1977       C  0.16460463  0.38115462  0.00783057     0.29900
C1978       C  0.15894644  0.36688496  0.99581403    -0.20900
C1979       C  0.17940839  0.36790399  0.98835631    -0.09000
C1980       C  0.20569152  0.38311656  0.99325051     0.29900
F1981       F  0.22621638  0.38554447  0.98610537    -0.19500
H1982       H  0.23184563  0.40951183  0.00858383     0.18200
H1983       H  0.13851566  0.35509031  0.99229549     0.18200
F1984       F  0.14428116  0.37933914  0.01489066    -0.19500
C1985       C  0.03483066  0.30689622  0.87847184    -0.20900
C1986       C  0.03189642  0.32815514  0.88075415    -0.09000
C1987       C  0.05038729  0.34909894  0.88914697     0.29900
C1988       C  0.07053590  0.34811956  0.89556578    -0.20900
C1989       C  0.07300581  0.32655658  0.89359116    -0.09000
C1990       C  0.05522452  0.30606982  0.88481371     0.29900
F1991       F  0.05665647  0.28462785  0.88291473    -0.19500
H1992       H  0.02084390  0.29047396  0.87209747     0.18200
H1993       H  0.08433363  0.36435698  0.90209691     0.18200
F1994       F  0.04938819  0.37079770  0.89099738    -0.19500
C1995       C  0.25788224  0.28437397  0.88498943    -0.20900
C1996       C  0.28435546  0.30172699  0.88938174    -0.09000
C1997       C  0.28926346  0.31935940  0.90006262     0.29900
C1998       C  0.26825032  0.31914012  0.90623988    -0.20900
C1999       C  0.24193918  0.30190286  0.90180989    -0.09000
C2000       C  0.23688803  0.28451598  0.89107113     0.29900
F2001       F  0.21162025  0.26715222  0.88668588    -0.19500
H2002       H  0.25325877  0.27042012  0.87690822     0.18200
H2003       H  0.27274108  0.33310437  0.91431338     0.18200
F2004       F  0.31432548  0.33756692  0.90436728    -0.19500
C2005       C  0.36494749  0.11008136  0.78931131    -0.20900
C2006       C  0.38770650  0.13321899  0.78418074    -0.09000
C2007       C  0.41290796  0.14109534  0.78935038     0.29900
C2008       C  0.41511204  0.12633077  0.79946117    -0.20900
C2009       C  0.39242913  0.10331738  0.80464109    -0.09000
C2010       C  0.36721718  0.09519119  0.79942111     0.29900
F2011       F  0.34469437  0.07331769  0.80427935    -0.19500
H2012       H  0.34530250  0.10349987  0.78553581     0.18200
H2013       H  0.43481915  0.13283799  0.80308559     0.18200
F2014       F  0.43560951  0.16300254  0.78464463    -0.19500
C2015       C  0.35210411  0.21105943  0.79112964    -0.20900
C2016       C  0.37523135  0.22180041  0.78317537    -0.09000
C2017       C  0.39719876  0.24743192  0.78616542     0.29900
C2018       C  0.39628004  0.26148277  0.79709133    -0.20900
C2019       C  0.37363157  0.25041835  0.80541588    -0.09000
C2020       C  0.35126759  0.22510695  0.80218208     0.29900
F2021       F  0.32907186  0.21326634  0.81001038    -0.19500
H2022       H  0.33493882  0.19133047  0.78910410     0.18200
H2023       H  0.41360675  0.28110780  0.79907167     0.18200
F2024       F  0.41979560  0.25898695  0.77862511    -0.19500
C2025       C  0.72616980  0.12681917  0.78771125    -0.20900
C2026       C  0.74755090  0.12520254  0.78341976    -0.09000
C2027       C  0.75264072  0.10805121  0.79038763     0.29900
C2028       C  0.73711173  0.09359291  0.80161008    -0.20900
C2029       C  0.71625477  0.09590534  0.80611939    -0.09000
C2030       C  0.71063299  0.11234362  0.79882801     0.29900
F2031       F  0.68984224  0.11424184  0.80221352    -0.19500
H2032       H  0.72137878  0.13944720  0.78246275     0.18200
H2033       H  0.74192064  0.08110805  0.80698171     0.18200
F2034       F  0.77294835  0.10565038  0.78660920    -0.19500
C2035       C  0.84459877  0.24881610  0.78391464    -0.20900
C2036       C  0.84720466  0.22789410  0.78016847    -0.09000
C2037       C  0.86685390  0.22565290  0.78656287     0.29900
C2038       C  0.88226568  0.24300048  0.79701246    -0.20900
C2039       C  0.87857340  0.26299705  0.80124432    -0.09000
C2040       C  0.86015391  0.26628151  0.79423446     0.29900
F2041       F  0.85707672  0.28636445  0.79725137    -0.19500
H2042       H  0.83018721  0.25156202  0.77895537     0.18200
H2043       H  0.89640786  0.24005592  0.80210421     0.18200
F2044       F  0.87068538  0.20625134  0.78307634    -0.19500
C2045       C  0.74052479  0.60408920  0.79099506    -0.20900
C2046       C  0.73035116  0.58215951  0.78230550    -0.09000
C2047       C  0.70369962  0.56076630  0.78388187     0.29900
C2048       C  0.68811005  0.56082432  0.79429545    -0.20900
C2049       C  0.69851948  0.58220620  0.80329756    -0.09000
C2050       C  0.72476522  0.60415239  0.80143998     0.29900
F2051       F  0.73567720  0.62491437  0.81014201    -0.19500
H2052       H  0.76095509  0.62080586  0.78998608     0.18200
H2053       H  0.66780656  0.54389637  0.79539901     0.18200
F2054       F  0.69257827  0.53969791  0.77536117    -0.19500
C2055       C  0.84648171  0.59616275  0.78700623    -0.20900
C2056       C  0.82294022  0.57313758  0.78242684    -0.09000
C2057       C  0.81540209  0.54857322  0.78813674     0.29900
C2058       C  0.83106755  0.54725435  0.79813418    -0.20900
C2059       C  0.85458931  0.57024571  0.80274044    -0.09000
C2060       C  0.86215828  0.59482444  0.79704202     0.29900
F2061       F  0.88424242  0.61772103  0.80136296    -0.19500
H2062       H  0.85277435  0.61537015  0.78287112     0.18200
H2063       H  0.82476262  0.52798680  0.80215721     0.18200
F2064       F  0.79285068  0.52569457  0.78414934    -0.19500
C2065       C  0.54746502  0.73881690  0.51812741    -0.20900
C2066       C  0.54113885  0.75184398  0.52761967    -0.09000
C2067       C  0.52248798  0.75811639  0.52402219     0.29900
C2068       C  0.51083675  0.75172491  0.51119379    -0.20900
C2069       C  0.51720415  0.73871614  0.50175079    -0.09000
C2070       C  0.53565880  0.73226290  0.50534887     0.29900
F2071       F  0.54311027  0.72047769  0.49640298    -0.19500
H2072       H  0.56196514  0.73402614  0.52046578     0.18200
H2073       H  0.49642316  0.75658986  0.50873196     0.18200
F2074       F  0.51480198  0.76973405  0.53292885    -0.19500
C2075       C  0.68680009  0.56155788  0.71278458    -0.20900
C2076       C  0.69695691  0.58348582  0.70411549    -0.09000
C2077       C  0.72321970  0.60538677  0.70608207     0.29900
C2078       C  0.73916032  0.60476567  0.71622930    -0.20900
C2079       C  0.72929143  0.58231492  0.72451472    -0.09000
C2080       C  0.70266387  0.56092139  0.72289008     0.29900
F2081       F  0.69183080  0.53933564  0.73107212    -0.19500
H2082       H  0.66649932  0.54465350  0.71166667     0.18200
H2083       H  0.75954976  0.62152975  0.71730023     0.18200
F2084       F  0.73405952  0.62676176  0.69777252    -0.19500
C2085       C  0.63652444  0.68781557  0.63099721    -0.20900
C2086       C  0.64136027  0.67201787  0.62275816    -0.09000
C2087       C  0.64345129  0.67610296  0.60870082     0.29900
C2088       C  0.63983169  0.69508172  0.60299948    -0.20900
C2089       C  0.63394683  0.71025539  0.61117304    -0.09000
C2090       C  0.63262434  0.70662127  0.62530342     0.29900
F2091       F  0.62607117  0.72001730  0.63362838    -0.19500
H2092       H  0.63457036  0.68479340  0.64184051     0.18200
H2093       H  0.64144877  0.69773502  0.59213564     0.18200
F2094       F  0.64916414  0.66188727  0.60046798    -0.19500
C2095       C  0.73123179  0.09132232  0.70423863    -0.20900
C2096       C  0.71038145  0.09408486  0.70022847    -0.09000
C2097       C  0.70524193  0.11032653  0.70798689     0.29900
C2098       C  0.72130466  0.12430595  0.71905561    -0.20900
C2099       C  0.74287412  0.12250192  0.72276682    -0.09000
C2100       C  0.74739283  0.10538573  0.71536541     0.29900
F2101       F  0.76785626  0.10280377  0.71855462    -0.19500
H2102       H  0.73561232  0.07889629  0.69850147     0.18200
H2103       H  0.71696453  0.13693606  0.72463064     0.18200
F2104       F  0.68450106  0.11259410  0.70504186    -0.19500
C2105       C  0.59266382  0.90754562  0.62161826    -0.20900
C2106       C  0.61592471  0.92406232  0.62918795    -0.09000
C2107       C  0.63298996  0.91536741  0.63190935     0.29900
C2108       C  0.62736980  0.89131179  0.62662739    -0.20900
C2109       C  0.60479363  0.87551500  0.61849839    -0.09000
C2110       C  0.58708113  0.88356634  0.61634483     0.29900
F2111       F  0.56424994  0.86828239  0.60919083    -0.19500
H2112       H  0.57871425  0.91322768  0.61966362     0.18200
H2113       H  0.64138134  0.88564714  0.62843841     0.18200
F2114       F  0.65584384  0.93058673  0.63903528    -0.19500
C2115       C  0.71548329  0.21090764  0.47423802    -0.20900
C2116       C  0.73726761  0.22738706  0.48272544    -0.09000
C2117       C  0.76326646  0.23890243  0.47757139     0.29900
C2118       C  0.76716406  0.23341587  0.46436974    -0.20900
C2119       C  0.74536112  0.21627494  0.45606674    -0.09000
C2120       C  0.71941706  0.20543177  0.46104114     0.29900
F2121       F  0.69783140  0.18988795  0.45309810    -0.19500
H2122       H  0.69527841  0.20219539  0.47781665     0.18200
H2123       H  0.78734945  0.24190261  0.46080925     0.18200
F2124       F  0.78500696  0.25440184  0.48541652    -0.19500
C2125       C  0.74385637  0.47278580  0.48759372    -0.20900
C2126       C  0.73231607  0.48092497  0.49703324    -0.09000
C2127       C  0.72553784  0.49882856  0.49296482     0.29900
C2128       C  0.73097312  0.50887795  0.47984674    -0.20900
C2129       C  0.74323404  0.50137828  0.47047370    -0.09000
C2130       C  0.74916273  0.48273788  0.47441773     0.29900
F2131       F  0.75987437  0.47386575  0.46561324    -0.19500
H2132       H  0.74881037  0.45864948  0.49040814     0.18200
H2133       H  0.72636765  0.52334193  0.47725718     0.18200
F2134       F  0.71499522  0.50787138  0.50178062    -0.19500
C2135       C  0.44736792  0.22195799  0.49895632    -0.20900
C2136       C  0.46190478  0.21141479  0.50347645    -0.09000
C2137       C  0.46576438  0.19566516  0.49454264     0.29900
C2138       C  0.45498590  0.19038787  0.48153021    -0.20900
C2139       C  0.44025772  0.20072457  0.47703824    -0.09000
C2140       C  0.43665011  0.21674247  0.48590780     0.29900
F2141       F  0.42209960  0.22675056  0.48222599    -0.19500
H2142       H  0.44384413  0.23395740  0.50560244     0.18200
H2143       H  0.45857469  0.17842820  0.47489097     0.18200
F2144       F  0.48060554  0.18592929  0.49812649    -0.19500
C2145       C  0.24360734  0.74986609  0.53687736    -0.20900
C2146       C  0.21702739  0.74028833  0.54023838    -0.09000
C2147       C  0.19680343  0.72403174  0.53088874     0.29900
C2148       C  0.20320941  0.71791978  0.51846515    -0.20900
C2149       C  0.22982182  0.72792598  0.51501020    -0.09000
C2150       C  0.24999774  0.74375345  0.52443442     0.29900
F2151       F  0.27585957  0.75292032  0.52179400    -0.19500
H2152       H  0.25957431  0.76197746  0.54393653     0.18200
H2153       H  0.18725616  0.70593954  0.51137451     0.18200
F2154       F  0.17090590  0.71484790  0.53341137    -0.19500
C2155       C  0.36672519  0.11015225  0.71925206    -0.20900
C2156       C  0.38908123  0.13007237  0.72639689    -0.09000
C2157       C  0.41398729  0.13356520  0.72406998     0.29900
C2158       C  0.41646815  0.11814026  0.71444347    -0.20900
C2159       C  0.39427481  0.09878208  0.70700971    -0.09000
C2160       C  0.36921048  0.09463736  0.70965761     0.29900
F2161       F  0.34728183  0.07652224  0.70257068    -0.19500
H2162       H  0.34730670  0.10693396  0.72085885     0.18200
H2163       H  0.43589936  0.12141985  0.71279206     0.18200
F2164       F  0.43599845  0.15175560  0.73110962    -0.19500
C2165       C  0.32320869  0.92110643  0.62464201    -0.20900
C2166       C  0.32070596  0.92635285  0.63817421    -0.09000
C2167       C  0.29806533  0.90734750  0.64551029     0.29900
C2168       C  0.27854266  0.88352292  0.63937777    -0.20900
C2169       C  0.28105765  0.87821451  0.62580298    -0.09000
C2170       C  0.30368362  0.89751796  0.61847164     0.29900
F2171       F  0.30687161  0.89429331  0.60520866    -0.19500
H2172       H  0.34013561  0.93557962  0.61864543     0.18200
H2173       H  0.26159057  0.86912446  0.64537014     0.18200
F2174       F  0.29508505  0.91135364  0.65869976    -0.19500
C2175       C  0.83435187  0.54598068  0.71062333    -0.20900
C2176       C  0.85390018  0.56853120  0.70348832    -0.09000
C2177       C  0.85782037  0.59318702  0.70661323     0.29900
C2178       C  0.84232206  0.59502873  0.71658270    -0.20900
C2179       C  0.82260384  0.57240878  0.72365442    -0.09000
C2180       C  0.81895963  0.54780737  0.72061865     0.29900
F2181       F  0.80077768  0.52545730  0.72739986    -0.19500
H2182       H  0.83110903  0.52680938  0.70856311     0.18200
H2183       H  0.84556189  0.61420269  0.71863919     0.18200
F2184       F  0.87590378  0.61539656  0.69972670    -0.19500
C2185       C  0.04396046  0.67457354  0.64075230    -0.20900
C2186       C  0.03396148  0.64788823  0.63776027    -0.09000
C2187       C  0.04885080  0.64229019  0.62902855     0.29900
C2188       C  0.07218002  0.66277773  0.62301347    -0.20900
C2189       C  0.08175492  0.68934582  0.62571902    -0.09000
C2190       C  0.06769605  0.69513649  0.63486167     0.29900
F2191       F  0.07623073  0.72060002  0.63769621    -0.19500
H2192       H  0.03313396  0.67966555  0.64740608     0.18200
H2193       H  0.08301513  0.65772732  0.61632249     0.18200
F2194       F  0.04142748  0.61709206  0.62639688    -0.19500
C2195       C  0.20389213  0.44153102  0.51076577    -0.20900
C2196       C  0.23028579  0.45579364  0.50611381    -0.09000
C2197       C  0.25048424  0.45845361  0.51454740     0.29900
C2198       C  0.24421296  0.44678790  0.52735852    -0.20900
C2199       C  0.21774443  0.43223515  0.53199389    -0.09000
C2200       C  0.19755642  0.42966524  0.52351988     0.29900
F2201       F  0.17154355  0.41487277  0.52724556    -0.19500
H2202       H  0.18797177  0.43891925  0.50436121     0.18200
H2203       H  0.26019834  0.44942648  0.53370724     0.18200
F2204       F  0.27638342  0.47289575  0.51058242    -0.19500
C2205       C  0.87473282  0.23911663  0.70352534    -0.20900
C2206       C  0.86829400  0.25684274  0.69871507    -0.09000
C2207       C  0.84835398  0.25818618  0.70529132     0.29900
C2208       C  0.83478157  0.24174029  0.71626363    -0.20900
C2209       C  0.84059112  0.22344337  0.72093723    -0.09000
C2210       C  0.86092134  0.22238140  0.71448880     0.29900
F2211       F  0.86725879  0.20503740  0.71858966    -0.19500
H2212       H  0.89004552  0.23776437  0.69858786     0.18200
H2213       H  0.81947693  0.24330394  0.72104928     0.18200
F2214       F  0.84228473  0.27580517  0.70133978    -0.19500
C2215       C  0.08017422  0.35564703  0.63170533    -0.20900
C2216       C  0.08224603  0.35362948  0.61767973    -0.09000
C2217       C  0.06074192  0.34779326  0.60932521     0.29900
C2218       C  0.03816450  0.34532996  0.61482357    -0.20900
C2219       C  0.03639935  0.34840893  0.62875210    -0.09000
C2220       C  0.05740750  0.35309515  0.63724839     0.29900
F2221       F  0.05654204  0.35642851  0.65076357    -0.19500
H2222       H  0.09655006  0.36012982  0.63830820     0.18200
H2223       H  0.02194682  0.34089925  0.60811916     0.18200
F2224       F  0.06132066  0.34408082  0.59583081    -0.19500
C2225       C  0.39878324  0.25728476  0.70751281    -0.20900
C2226       C  0.37468090  0.24816298  0.70073390    -0.09000
C2227       C  0.35124603  0.22533532  0.70557151     0.29900
C2228       C  0.35229576  0.21144724  0.71668093    -0.20900
C2229       C  0.37666042  0.22016071  0.72319375    -0.09000
C2230       C  0.39986347  0.24363422  0.71860072     0.29900
F2231       F  0.42381201  0.25343666  0.72467853    -0.19500
H2232       H  0.41705226  0.27511637  0.70418815     0.18200
H2233       H  0.33409477  0.19352731  0.71998994     0.18200
F2234       F  0.32760404  0.21572685  0.69921601    -0.19500
C2235       C  0.31237557  0.36980248  0.62617889    -0.20900
C2236       C  0.30313467  0.34591762  0.63313380    -0.09000
C2237       C  0.27542241  0.32759624  0.63444796     0.29900
C2238       C  0.25760958  0.33269898  0.62839624    -0.20900
C2239       C  0.26704016  0.35588228  0.62082679    -0.09000
C2240       C  0.29459166  0.37473261  0.62004049     0.29900
F2241       F  0.30437463  0.39805611  0.61344630    -0.19500
H2242       H  0.33349266  0.38470780  0.62532311     0.18200
H2243       H  0.23640554  0.31796531  0.62915457     0.18200
F2244       F  0.26537818  0.30416063  0.64092765    -0.19500
loop_ 
_geom_bond_atom_site_label_1 
_geom_bond_atom_site_label_2 
_geom_bond_distance 
_geom_bond_site_symmetry_2 
_ccdc_geom_bond_type 
N1            N2   1.321       .  A
N1            C5   1.351       .  A
N1           Cu9   2.090       .  S
N2            C3   1.339       .  A
N2           Cu8   2.057       .  S
C3            C4   1.381       .  A
C3            H6   1.082       .  S
C4            C5   1.391       .  A
C4         C2226   1.482       .  S
C5            H7   1.082       .  S
Cu8          N11   2.056       .  S
Cu9          N19   2.090       .  S
Cu10         N12   2.060       .  S
Cu10         N18   2.062       .  S
N11          N12   1.320       .  A
N11          C15   1.341       .  A
N12          C13   1.345       .  A
C13          C14   1.382       .  A
C13          H16   1.082       .  S
C14          C15   1.379       .  A
C14         C225   1.474       .  S
C15          H17   1.082       .  S
N18          N19   1.323       .  A
N18          C22   1.340       .  A
N19          C20   1.347       .  A
C20          C21   1.390       .  A
C20          H23   1.081       .  S
C21          C22   1.383       .  A
C21        C2236   1.484       .  S
C22          H24   1.081       .  S
N25          N26   1.321       .  A
N25          C29   1.344       .  A
N25         Cu33   2.062       .  S
N26          C27   1.342       .  A
N26         Cu32   2.067       .  S
C27          C28   1.385       .  A
C27          H30   1.082       .  S
C28          C29   1.383       .  A
C28        C2206   1.476       .  S
C29          H31   1.082       .  S
Cu32         N35   2.066       .  S
Cu33         N43   2.062       .  S
Cu34         N36   2.072       .  S
Cu34         N42   2.072       .  S
N35          N36   1.322       .  A
N35          C39   1.343       .  A
N36          C37   1.346       .  A
C37          C38   1.383       .  A
C37          H40   1.082       .  S
C38          C39   1.379       .  A
C38         C307   1.478       .  S
C39          H41   1.082       .  S
N42          N43   1.322       .  A
N42          C46   1.341       .  A
N43          C44   1.345       .  A
C44          C45   1.383   1_655  A
C44          H47   1.082   1_655  S
C45          C46   1.384   1_455  A
C45        C2219   1.475       .  S
C46          H48   1.082       .  S
N49          N50   1.323       .  A
N49          C53   1.343       .  A
N49         Cu57   2.074       .  S
N50          C51   1.344       .  A
N50         Cu56   2.067       .  S
C51          C52   1.381       .  A
C51          H54   1.082       .  S
C52          C53   1.383       .  A
C52        C2239   1.474       .  S
C53          H55   1.082       .  S
Cu56         N59   2.066       .  S
Cu57         N67   2.072       .  S
Cu58         N60   2.055       .  S
Cu58         N66   2.055       .  S
N59          N60   1.320       .  A
N59          C63   1.346       .  A
N60          C61   1.339       .  A
C61          C62   1.381       .  A
C61          H64   1.082       .  S
C62          C63   1.385       .  A
C62        C2216   1.473       .  S
C63          H65   1.082       .  S
N66          N67   1.319       .  A
N66          C70   1.341       .  A
N67          C68   1.345       .  A
C68          C69   1.389       .  A
C68          H71   1.082       .  S
C69          C70   1.384       .  A
C69        C2199   1.481       .  S
C70          H72   1.081       .  S
N73          N74   1.320       .  A
N73          C77   1.349       .  A
N73         Cu81   2.088       .  S
N74          C75   1.339       .  A
N74         Cu80   2.057       .  S
C75          C76   1.385   1_655  A
C75          H78   1.079       .  S
C76          C77   1.394   1_455  A
C76        C2186   1.490       .  S
C77          H79   1.081       .  S
Cu80         N83   2.057       .  S
Cu81         N91   2.090       .  S
Cu82         N84   2.087       .  S
Cu82         N90   2.088       .  S
N83          N84   1.321       .  A
N83          C87   1.344       .  A
N84          C85   1.348       .  A
C85          C86   1.387       .  A
C85          H88   1.082       .  S
C86          C87   1.379       .  A
C86         C308   1.481       .  S
C87          H89   1.082       .  S
N90          N91   1.325       .  A
N90          C94   1.345       .  A
N91          C92   1.348       .  A
C92          C93   1.388       .  A
C92          H95   1.081       .  S
C93          C94   1.386       .  A
C93        C2176   1.487       .  S
C94          H96   1.082       .  S
N97          N98   1.321       .  A
N97         C101   1.347       .  A
N97        Cu105   2.076   1_565  S
N98          C99   1.340       .  A
N98        Cu104   2.060   1_565  S
C99         C100   1.383       .  A
C99         H102   1.082       .  S
C100        C101   1.388       .  A
C100       C2166   1.480       .  S
C101        H103   1.081       .  S
Cu104       N107   2.059       .  S
Cu105       N115   2.077       .  S
Cu106       N108   2.074       .  S
Cu106       N114   2.075       .  S
N107        N108   1.321       .  A
N107        C111   1.342       .  A
N108        C109   1.347       .  A
C109        C110   1.384       .  A
C109        H112   1.082       .  S
C110        C111   1.379       .  A
C110        C168   1.478       .  S
C111        H113   1.082       .  S
N114        N115   1.323       .  A
N114        C118   1.343       .  A
N115        C116   1.346       .  A
C116        C117   1.387       .  A
C116        H119   1.081       .  S
C117        C118   1.384       .  A
C117       C2159   1.482       .  S
C118        H120   1.082       .  S
N121        N122   1.322       .  A
N121        C125   1.341       .  A
N121       Cu129   2.068       .  S
N122        C123   1.347       .  A
N122       Cu128   2.078       .  S
C123        C124   1.387       .  A
C123        H126   1.082       .  S
C124        C125   1.384       .  A
C124       C2189   1.480       .  S
C125        H127   1.082       .  S
Cu128       N131   2.078       .  S
Cu129       N139   2.067       .  S
Cu130       N132   2.068       .  S
Cu130       N138   2.067       .  S
N131        N132   1.321       .  A
N131        C135   1.346       .  A
N132        C133   1.341       .  A
C133        C134   1.387       .  A
C133        H136   1.079       .  S
C134        C135   1.390       .  A
C134       C2169   1.488       .  S
C135        H137   1.081       .  S
N138        N139   1.319       .  A
N138        C142   1.344       .  A
N139        C140   1.344       .  A
C140        C141   1.388       .  A
C140        H143   1.081       .  S
C141        C142   1.388       .  A
C141       C2146   1.485       .  S
C142        H144   1.082       .  S
N145        C150   1.354       .  A
N145        C149   1.353       .  A
N145        H177   1.040       .  S
N146        C153   1.351       .  A
N146        C154   1.352       .  A
N147        C152   1.354       .  A
N147        C151   1.352       .  A
N147        H178   1.039       .  S
N148        C155   1.352       .  A
N148        C156   1.352       .  A
C149        C157   1.386       .  A
C149        C165   1.414       .  A
C150        C166   1.418       .  A
C150        C158   1.389       .  A
C151        C159   1.386       .  A
C151        C168   1.413       .  A
C152        C167   1.419       .  A
C152        C160   1.389       .  A
C153        C165   1.411       .  A
C153        C161   1.386       .  A
C154        C168   1.412       .  A
C154        C162   1.386       .  A
C155        C163   1.386       .  A
C155        C166   1.414       .  A
C156        C164   1.387       .  A
C156        C167   1.416       .  A
C157        C158   1.373       .  A
C157        H169   1.082       .  S
C158        H170   1.082       .  S
C159        C160   1.373       .  A
C159        H171   1.082       .  S
C160        H172   1.082       .  S
C161        C162   1.371       .  A
C161        H173   1.082       .  S
C162        H174   1.082       .  S
C163        C164   1.373       .  A
C163        H175   1.082       .  S
C164        H176   1.082       .  S
C165        C182   1.476       .  S
C166        C264   1.481       .  S
C167        C332   1.482       .  S
N179        N180   1.323       .  A
N179        C183   1.343       .  A
N179       Cu187   2.066       .  S
N180        C181   1.346       .  A
N180       Cu186   2.073       .  S
C181        C182   1.382       .  A
C181        H184   1.082       .  S
C182        C183   1.379       .  A
C183        H185   1.082       .  S
Cu186       N189   2.073       .  S
Cu187       N197   2.066       .  S
Cu188       N190   2.067       .  S
Cu188       N196   2.067       .  S
N189        N190   1.323       .  A
N189        C193   1.345       .  A
N190        C191   1.343       .  A
C191        C192   1.378       .  A
C191        H194   1.082       .  S
C192        C193   1.381       .  A
C192        C224   1.475       .  S
C193        H195   1.082       .  S
N196        N197   1.320       .  A
N196        C200   1.344       .  A
N197        C198   1.343       .  A
C198        C199   1.388       .  A
C198        H201   1.081       .  S
C199        C200   1.387       .  A
C199       C2136   1.484       .  S
C200        H202   1.082       .  S
N203        C208   1.353       .  A
N203        C207   1.352       .  A
N203        H235   1.035       .  S
N204        C211   1.351       .  A
N204        C212   1.350       .  A
N205        C210   1.353       .  A
N205        C209   1.353       .  A
N205        H236   1.037       .  S
N206        C213   1.351       .  A
N206        C214   1.350       .  A
C207        C215   1.388       .  A
C207        C223   1.416       .  A
C208        C224   1.414       .  A
C208        C216   1.387       .  A
C209        C217   1.388       .  A
C209        C226   1.416       .  A
C210        C225   1.414       .  A
C210        C218   1.386       .  A
C211        C223   1.412       .  A
C211        C219   1.386       .  A
C212        C226   1.414       .  A
C212        C220   1.388       .  A
C213        C221   1.386       .  A
C213        C224   1.411       .  A
C214        C222   1.387       .  A
C214        C225   1.411       .  A
C215        C216   1.372       .  A
C215        H227   1.082       .  S
C216        H228   1.082       .  S
C217        C218   1.372       .  A
C217        H229   1.082       .  S
C218        H230   1.082       .  S
C219        C220   1.371       .  A
C219        H231   1.082       .  S
C220        H232   1.082       .  S
C221        C222   1.370       .  A
C221        H233   1.082       .  S
C222        H234   1.082       .  S
C223        C250   1.475       .  S
C226        C356   1.476       .  S
N237        N238   1.323       .  A
N237        C241   1.344       .  A
N237       Cu245   2.065       .  S
N238        C239   1.345       .  A
N238       Cu244   2.077       .  S
C239        C240   1.382       .  A
C239        H242   1.082       .  S
C240        C241   1.379       .  A
C240        C305   1.477       .  S
C241        H243   1.082       .  S
Cu244       N247   2.076       .  S
Cu245       N255   2.064       .  S
Cu246       N248   2.052       .  S
Cu246       N254   2.052       .  S
N247        N248   1.321       .  A
N247        C251   1.345       .  A
N248        C249   1.341       .  A
C249        C250   1.377       .  A
C249        H252   1.082       .  S
C250        C251   1.384       .  A
C251        H253   1.082       .  S
N254        N255   1.319       .  A
N254        C258   1.340       .  A
N255        C256   1.343       .  A
C256        C257   1.386       .  A
C256        H259   1.082       .  S
C257        C258   1.383       .  A
C257       C2126   1.476       .  S
C258        H260   1.081       .  S
N261        N262   1.322       .  A
N261        C265   1.348       .  A
N261       Cu269   2.082       .  S
N262        C263   1.342       .  A
N262       Cu268   2.068       .  S
C263        C264   1.380       .  A
C263        H266   1.082       .  S
C264        C265   1.386       .  A
C265        H267   1.082       .  S
Cu268       N271   2.069       .  S
Cu269       N279   2.082       .  S
Cu270       N272   2.077       .  S
Cu270       N278   2.078       .  S
N271        N272   1.322       .  A
N271        C275   1.344       .  A
N272        C273   1.347       .  A
C273        C274   1.384       .  A
C273        H276   1.082       .  S
C274        C275   1.381       .  A
C274        C306   1.482       .  S
C275        H277   1.082       .  S
N278        N279   1.323       .  A
N278        C282   1.345       .  A
N279        C280   1.345       .  A
C280        C281   1.387       .  A
C280        H283   1.082       .  S
C281        C282   1.387       .  A
C281       C2116   1.485       .  S
C282        H284   1.081       .  S
N285        C290   1.355       .  A
N285        C289   1.353       .  A
N285        H317   1.037       .  S
N286        C293   1.351       .  A
N286        C294   1.352       .  A
N287        C292   1.354       .  A
N287        C291   1.355       .  A
N287        H318   1.037       .  S
N288        C295   1.352       .  A
N288        C296   1.351       .  A
C289        C297   1.387       .  A
C289        C305   1.415       .  A
C290        C306   1.416       .  A
C290        C298   1.387       .  A
C291        C299   1.386       .  A
C291        C308   1.415       .  A
C292        C307   1.418       .  A
C292        C300   1.388       .  A
C293        C305   1.411       .  A
C293        C301   1.387       .  A
C294        C308   1.411       .  A
C294        C302   1.386       .  A
C295        C303   1.386       .  A
C295        C306   1.413       .  A
C296        C304   1.387       .  A
C296        C307   1.414       .  A
C297        C298   1.373       .  A
C297        H309   1.082       .  S
C298        H310   1.082       .  S
C299        C300   1.375       .  A
C299        H311   1.082       .  S
C300        H312   1.082       .  S
C301        C302   1.371       .  A
C301        H313   1.082       .  S
C302        H314   1.082       .  S
C303        C304   1.371       .  A
C303        H315   1.082       .  S
C304        H316   1.082       .  S
N319        N320   1.321       .  A
N319        C323   1.347       .  A
N319       Cu327   2.080       .  S
N320        C321   1.344       .  A
N320       Cu326   2.076       .  S
C321        C322   1.388       .  A
C321        H324   1.081       .  S
C322        C323   1.388       .  A
C322       C2096   1.487       .  S
C323        H325   1.082       .  S
Cu326       N329   2.075       .  S
Cu327       N337   2.080   1_545  S
Cu328       N330   2.075       .  S
Cu328       N336   2.075   1_545  S
N329        N330   1.322       .  A
N329        C333   1.344       .  A
N330        C331   1.347       .  A
C331        C332   1.383       .  A
C331        H334   1.082       .  S
C332        C333   1.382       .  A
C333        H335   1.082       .  S
N336        N337   1.322       .  A
N336        C340   1.343       .  A
N337        C338   1.346       .  A
C338        C339   1.388       .  A
C338        H341   1.081       .  S
C339        C340   1.387       .  A
C339       C2106   1.487       .  S
C340        H342   1.082       .  S
N343        N344   1.321       .  A
N343        C347   1.347       .  A
N343       Cu351   2.079       .  S
N344        C345   1.341       .  A
N344       Cu350   2.060       .  S
C345        C346   1.383       .  A
C345        H348   1.082       .  S
C346        C347   1.389       .  A
C346       C2076   1.481       .  S
C347        H349   1.081       .  S
Cu350       N353   2.060       .  S
Cu351       N361   2.079       .  S
Cu352       N354   2.064       .  S
Cu352       N360   2.065       .  S
N353        N354   1.321       .  A
N353        C357   1.342       .  A
N354        C355   1.345       .  A
C355        C356   1.382       .  A
C355        H358   1.082       .  S
C356        C357   1.379       .  A
C357        H359   1.082       .  S
N360        N361   1.323       .  A
N360        C364   1.342       .  A
N361        C362   1.346       .  A
C362        C363   1.385       .  A
C362        H365   1.082       .  S
C363        C364   1.381       .  A
C363       C2086   1.475       .  S
C364        H366   1.082       .  S
N367        N368   1.322       .  A
N367        C371   1.343       .  A
N367       Cu375   2.068       .  S
N368        C369   1.343       .  A
N368       Cu374   2.073       .  S
C369        C370   1.386       .  A
C369        H372   1.081       .  S
C370        C371   1.386       .  A
C370       C2089   1.482       .  S
C371        H373   1.082       .  S
Cu374       N377   2.074       .  S
Cu375       N385   2.067       .  S
Cu376       N378   2.064       .  S
Cu376       N384   2.064       .  S
N377        N378   1.320       .  A
N377        C381   1.346       .  A
N378        C379   1.342       .  A
C379        C380   1.385       .  A
C379        H382   1.081       .  S
C380        C381   1.388       .  A
C380       C2109   1.483       .  S
C381        H383   1.082       .  S
N384        N385   1.320       .  A
N384        C388   1.342       .  A
N385        C386   1.343       .  A
C386        C387   1.388       .  A
C386        H389   1.081       .  S
C387        C388   1.387       .  A
C387       C2066   1.484       .  S
C388        H390   1.080       .  S
O391       Cu399   2.005       .  S
O391        C401   1.277       .  A
O392       Cu399   1.996       .  S
O392        C402   1.277       .  A
O393       Cu399   2.000       .  S
O393        C403   1.277       .  A
O394       Cu399   2.002       .  S
O394        C404   1.277       .  A
O395       Cu400   2.013       .  S
O395        C404   1.279       .  A
O396       Cu400   2.015       .  S
O396        C403   1.279       .  A
O397       Cu400   2.022       .  S
O397        C402   1.279       .  A
O398       Cu400   2.023       .  S
O398        C401   1.280       .  A
Cu399      Cu400   2.369       .  S
C401       C2179   1.488       .  S
C402       C2046   1.481       .  S
C403       C2079   1.481       .  S
C404       C2056   1.485       .  S
O405       Cu413   2.026       .  S
O405        C415   1.280       .  A
O406       Cu413   2.021       .  S
O406        C416   1.279       .  A
O407       Cu413   2.021       .  S
O407        C417   1.279       .  A
O408       Cu413   2.026       .  S
O408        C418   1.280       .  A
O409       Cu414   1.997       .  S
O409        C418   1.277       .  A
O410       Cu414   1.995       .  S
O410        C417   1.277       .  A
O411       Cu414   1.988       .  S
O411        C416   1.276       .  A
O412       Cu414   1.994       .  S
O412        C415   1.277       .  A
Cu413      Cu414   2.367       .  S
C415       C2026   1.486       .  S
C416       C2209   1.482       .  S
C417       C2036   1.484       .  S
C418       C2099   1.487       .  S
O419       Cu427   1.993       .  S
O419        C429   1.276       .  A
O420       Cu427   1.999       .  S
O420        C430   1.277       .  A
O421       Cu427   1.998       .  S
O421        C431   1.277       .  A
O422       Cu427   2.000       .  S
O422        C432   1.277       .  A
O423       Cu428   2.015       .  S
O423        C432   1.279       .  A
O424       Cu428   2.018       .  S
O424        C431   1.279       .  A
O425       Cu428   2.021       .  S
O425        C430   1.279       .  A
O426       Cu428   2.014       .  S
O426        C429   1.279       .  A
Cu427      Cu428   2.368       .  S
C429       C2006   1.481       .  S
C430       C2229   1.486       .  S
C431       C2016   1.483       .  S
C432       C2156   1.482       .  S
N433        N434   1.322       .  A
N433        C437   1.348       .  A
N433       Cu441   2.084       .  S
N434        C435   1.341       .  A
N434       Cu440   2.068       .  S
C435        C436   1.385       .  A
C435        H438   1.081       .  S
C436        C437   1.390       .  A
C436       C2019   1.487       .  S
C437        H439   1.081       .  S
Cu440       N443   2.067       .  S
Cu441       N451   2.084       .  S
Cu442       N444   2.066       .  S
Cu442       N450   2.067       .  S
N443        N444   1.320       .  A
N443        C447   1.344       .  A
N444        C445   1.345       .  A
C445        C446   1.382       .  A
C445        H448   1.082       .  S
C446        C447   1.382       .  A
C446        C715   1.479       .  S
C447        H449   1.082       .  S
N450        N451   1.321       .  A
N450        C454   1.341       .  A
N451        C452   1.347       .  A
C452        C453   1.392       .  A
C452        H455   1.081       .  S
C453        C454   1.387       .  A
C453       C1996   1.491       .  S
C454        H456   1.079       .  S
N457        N458   1.320       .  A
N457        C461   1.345       .  A
N457       Cu465   2.070       .  S
N458        C459   1.341       .  A
N458       Cu464   2.063       .  S
C459        C460   1.386       .  A
C459        H462   1.081       .  S
C460        C461   1.388       .  A
C460       C2039   1.484       .  S
C461        H463   1.081       .  S
Cu464       N467   2.063       .  S
Cu465       N475   2.070       .  S
Cu466       N468   2.079       .  S
Cu466       N474   2.080       .  S
N467        N468   1.321       .  A
N467        C471   1.343       .  A
N468        C469   1.347       .  A
C469        C470   1.385       .  A
C469        H472   1.082       .  S
C470        C471   1.380       .  A
C470        C657   1.482       .  S
C471        H473   1.082       .  S
N474        N475   1.323       .  A
N474        C478   1.343       .  A
N475        C476   1.345       .  A
C476        C477   1.385   1_655  A
C476        H479   1.082       .  S
C477        C478   1.386   1_455  A
C477       C1986   1.481       .  S
C478        H480   1.081   1_655  S
N481        N482   1.323       .  A
N481        C485   1.343       .  A
N481       Cu489   2.071       .  S
N482        C483   1.347       .  A
N482       Cu488   2.082       .  S
C483        C484   1.386       .  A
C483        H486   1.082       .  S
C484        C485   1.384       .  A
C484       C1999   1.480       .  S
C485        H487   1.082       .  S
Cu488       N491   2.082       .  S
Cu489       N499   2.070       .  S
Cu490       N492   2.055       .  S
Cu490       N498   2.054       .  S
N491        N492   1.321       .  A
N491        C495   1.347       .  A
N492        C493   1.340       .  A
C493        C494   1.380       .  A
C493        H496   1.082       .  S
C494        C495   1.387       .  A
C494       C1989   1.476       .  S
C495        H497   1.082       .  S
N498        N499   1.320       .  A
N498        C502   1.341       .  A
N499        C500   1.344       .  A
C500        C501   1.387       .  A
C500        H503   1.081       .  S
C501        C502   1.382       .  A
C501       C1979   1.475       .  S
C502        H504   1.082       .  S
N505        C510   1.352       .  A
N505        C509   1.353       .  A
N505        H537   1.037       .  S
N506        C513   1.352       .  A
N506        C514   1.351       .  A
N507        C512   1.355       .  A
N507        C511   1.353       .  A
N507        H538   1.037       .  S
N508        C515   1.350       .  A
N508        C516   1.352       .  A
C509        C517   1.386       .  A
C509        C525   1.412       .  A
C510        C526   1.415       .  A
C510        C518   1.388       .  A
C511        C519   1.387       .  A
C511        C528   1.416       .  A
C512        C527   1.418       .  A
C512        C520   1.388       .  A
C513        C525   1.409       .  A
C513        C521   1.385       .  A
C514        C528   1.414       .  A
C514        C522   1.388       .  A
C515        C523   1.386       .  A
C515        C526   1.411       .  A
C516        C524   1.387       .  A
C516        C527   1.414       .  A
C517        C518   1.373       .  A
C517        H529   1.082       .  S
C518        H530   1.082       .  S
C519        C520   1.373       .  A
C519        H531   1.082       .  S
C520        H532   1.081       .  S
C521        C522   1.370       .  A
C521        H533   1.082       .  S
C522        H534   1.082       .  S
C523        C524   1.371       .  A
C523        H535   1.082       .  S
C524        H536   1.082       .  S
C525        C730   1.476       .  S
C526        C542   1.473       .  S
C527        C576   1.483       .  S
C528        C788   1.480       .  S
N539        N540   1.321       .  A
N539        C543   1.345       .  A
N539       Cu547   2.064       .  S
N540        C541   1.341       .  A
N540       Cu546   2.059       .  S
C541        C542   1.378       .  A
C541        H544   1.082       .  S
C542        C543   1.381       .  A
C543        H545   1.082       .  S
Cu546       N549   2.059       .  S
Cu547       N557   2.065       .  S
Cu548       N550   2.080       .  S
Cu548       N556   2.080       .  S
N549        N550   1.322       .  A
N549        C553   1.342       .  A
N550        C551   1.347       .  A
C551        C552   1.385       .  A
C551        H554   1.082       .  S
C552        C553   1.378       .  A
C552        C656   1.477       .  S
C553        H555   1.082       .  S
N556        N557   1.322       .  A
N556        C560   1.344       .  A
N557        C558   1.342       .  A
C558        C559   1.384   1_556  A
C558        H561   1.082       .  S
C559        C560   1.389   1_554  A
C559       C1966   1.484       .  S
C560        H562   1.080   1_556  S
N563        N564   1.321       .  A
N563        C567   1.349       .  A
N563       Cu571   2.088       .  S
N564        C565   1.341       .  A
N564       Cu570   2.066       .  S
C565        C566   1.385       .  A
C565        H568   1.081       .  S
C566        C567   1.391       .  A
C566       C2029   1.487       .  S
C567        H569   1.082       .  S
Cu570       N573   2.065       .  S
Cu571       N581   2.088   1_545  S
Cu572       N574   2.074       .  S
Cu572       N580   2.075   1_545  S
N573        N574   1.320       .  A
N573        C577   1.344       .  A
N574        C575   1.347       .  A
C575        C576   1.385       .  A
C575        H578   1.082       .  S
C576        C577   1.382       .  A
C577        H579   1.082       .  S
N580        N581   1.324       .  A
N580        C584   1.342       .  A
N581        C582   1.348       .  A
C582        C583   1.388       .  A
C582        H585   1.082       .  S
C583        C584   1.384       .  A
C583       C1959   1.484       .  S
C584        H586   1.081       .  S
N587        N588   1.321       .  A
N587        C591   1.349       .  A
N587       Cu595   2.081       .  S
N588        C589   1.339       .  A
N588       Cu594   2.056       .  S
C589        C590   1.381       .  A
C589        H592   1.082       .  S
C590        C591   1.388       .  A
C590       C2049   1.477       .  S
C591        H593   1.082       .  S
Cu594       N597   2.055       .  S
Cu595       N605   2.082       .  S
Cu596       N598   2.067       .  S
Cu596       N604   2.068       .  S
N597        N598   1.321       .  A
N597        C601   1.341       .  A
N598        C599   1.346       .  A
C599        C600   1.382       .  A
C599        H602   1.082       .  S
C600        C601   1.378       .  A
C600        C716   1.474       .  S
C601        H603   1.082       .  S
N604        N605   1.323       .  A
N604        C608   1.342       .  A
N605        C606   1.347       .  A
C606        C607   1.387       .  A
C606        H609   1.081       .  S
C607        C608   1.383       .  A
C607       C1946   1.480       .  S
C608        H610   1.082       .  S
N611        N612   1.323       .  A
N611        C615   1.343       .  A
N611       Cu619   2.076       .  S
N612        C613   1.346       .  A
N612       Cu618   2.078       .  S
C613        C614   1.385       .  A
C613        H616   1.082       .  S
C614        C615   1.384       .  A
C614       C1949   1.478       .  S
C615        H617   1.082       .  S
Cu618       N621   2.078       .  S
Cu619       N629   2.075       .  S
Cu620       N622   2.064       .  S
Cu620       N628   2.063       .  S
N621        N622   1.321       .  A
N621        C625   1.347       .  A
N622        C623   1.341       .  A
C623        C624   1.384       .  A
C623        H626   1.082       .  S
C624        C625   1.389       .  A
C624       C1956   1.484       .  S
C625        H627   1.081       .  S
N628        N629   1.320       .  A
N628        C632   1.343       .  A
N629        C630   1.346       .  A
C630        C631   1.389       .  A
C630        H633   1.081       .  S
C631        C632   1.384       .  A
C631       C1936   1.482       .  S
C632        H634   1.082       .  S
N635        C640   1.353       .  A
N635        C639   1.355       .  A
N635        H667   1.038       .  S
N636        C643   1.352       .  A
N636        C644   1.351       .  A
N637        C642   1.355       .  A
N637        C641   1.353       .  A
N637        H668   1.037       .  S
N638        C645   1.351       .  A
N638        C646   1.352       .  A
C639        C647   1.385       .  A
C639        C655   1.413       .  A
C640        C656   1.417       .  A
C640        C648   1.389       .  A
C641        C649   1.386       .  A
C641        C658   1.414       .  A
C642        C657   1.418       .  A
C642        C650   1.389       .  A
C643        C655   1.410       .  A
C643        C651   1.385       .  A
C644        C658   1.412       .  A
C644        C652   1.387       .  A
C645        C653   1.386       .  A
C645        C656   1.413       .  A
C646        C654   1.387       .  A
C646        C657   1.415       .  A
C647        C648   1.373       .  A
C647        H659   1.082       .  S
C648        H660   1.082       .  S
C649        C650   1.374       .  A
C649        H661   1.082       .  S
C650        H662   1.082       .  S
C651        C652   1.371       .  A
C651        H663   1.082       .  S
C652        H664   1.082       .  S
C653        C654   1.372       .  A
C653        H665   1.082       .  S
C654        H666   1.082       .  S
C655        C672   1.481       .  S
C658        C764   1.479       .  S
N669        N670   1.323       .  A
N669        C673   1.346       .  A
N669       Cu677   2.077       .  S
N670        C671   1.346       .  A
N670       Cu676   2.076       .  S
C671        C672   1.383       .  A
C671        H674   1.082       .  S
C672        C673   1.382       .  A
C673        H675   1.082       .  S
Cu676       N679   2.076       .  S
Cu677       N687   2.078       .  S
Cu678       N680   2.070       .  S
Cu678       N686   2.070       .  S
N679        N680   1.323       .  A
N679        C683   1.346       .  A
N680        C681   1.344       .  A
C681        C682   1.380       .  A
C681        H684   1.082       .  S
C682        C683   1.381       .  A
C682        C713   1.478       .  S
C683        H685   1.082       .  S
N686        N687   1.320       .  A
N686        C690   1.344       .  A
N687        C688   1.344       .  A
C688        C689   1.390       .  A
C688        H691   1.080       .  S
C689        C690   1.389       .  A
C689       C1926   1.490   1_556  S
C690        H692   1.081       .  S
N693        C698   1.354       .  A
N693        C697   1.356       .  A
N693        H725   1.038       .  S
N694        C701   1.350       .  A
N694        C702   1.350       .  A
N695        C700   1.354       .  A
N695        C699   1.353       .  A
N695        H726   1.031       .  S
N696        C703   1.350       .  A
N696        C704   1.351       .  A
C697        C705   1.387       .  A
C697        C713   1.416       .  A
C698        C714   1.416       .  A
C698        C706   1.387       .  A
C699        C707   1.388       .  A
C699        C716   1.419       .  A
C700        C715   1.419       .  A
C700        C708   1.387       .  A
C701        C713   1.410       .  A
C701        C709   1.385       .  A
C702        C716   1.416       .  A
C702        C710   1.388       .  A
C703        C711   1.386       .  A
C703        C714   1.412       .  A
C704        C712   1.388       .  A
C704        C715   1.417       .  A
C705        C706   1.372       .  A
C705        H717   1.082       .  S
C706        H718   1.082       .  S
C707        C708   1.374       .  A
C707        H719   1.082       .  S
C708        H720   1.082       .  S
C709        C710   1.370       .  A
C709        H721   1.082       .  S
C710        H722   1.082       .  S
C711        C712   1.370       .  A
C711        H723   1.082       .  S
C712        H724   1.082       .  S
C714        C740   1.476       .  S
N727        N728   1.323       .  A
N727        C731   1.345       .  A
N727       Cu735   2.071       .  S
N728        C729   1.344       .  A
N728       Cu734   2.069       .  S
C729        C730   1.380       .  A
C729        H732   1.082       .  S
C730        C731   1.381       .  A
C731        H733   1.082       .  S
Cu734       N737   2.069       .  S
Cu735       N745   2.070       .  S
Cu736       N738   2.064       .  S
Cu736       N744   2.064       .  S
N737        N738   1.322       .  A
N737        C741   1.344       .  A
N738        C739   1.344       .  A
C739        C740   1.380       .  A
C739        H742   1.082       .  S
C740        C741   1.381       .  A
C741        H743   1.082       .  S
N744        N745   1.321       .  A
N744        C748   1.343       .  A
N745        C746   1.343       .  A
C746        C747   1.386       .  A
C746        H749   1.081       .  S
C747        C748   1.384       .  A
C747       C1919   1.479       .  S
C748        H750   1.082       .  S
N751        N752   1.321       .  A
N751        C755   1.348   1_655  A
N751       Cu759   2.085       .  S
N752        C753   1.342   1_655  A
N752       Cu758   2.066       .  S
C753        C754   1.385       .  A
C753        H756   1.082       .  S
C754        C755   1.391       .  A
C754       C1909   1.487       .  S
C755        H757   1.081       .  S
Cu758       N761   2.065       .  S
Cu759       N769   2.085       .  S
Cu760       N762   2.069       .  S
Cu760       N768   2.070       .  S
N761        N762   1.321       .  A
N761        C765   1.343       .  A
N762        C763   1.345       .  A
C763        C764   1.383       .  A
C763        H766   1.082       .  S
C764        C765   1.380       .  A
C765        H767   1.082       .  S
N768        N769   1.323       .  A
N768        C772   1.342       .  A
N769        C770   1.347       .  A
C770        C771   1.389       .  A
C770        H773   1.081       .  S
C771        C772   1.385       .  A
C771       C2059   1.486       .  S
C772        H774   1.081       .  S
N775        N776   1.321       .  A
N775        C779   1.345       .  A
N775       Cu783   2.068   1_565  S
N776        C777   1.341       .  A
N776       Cu782   2.060   1_565  S
C777        C778   1.382       .  A
C777        H780   1.082       .  S
C778        C779   1.384       .  A
C778       C1896   1.473       .  S
C779        H781   1.082       .  S
Cu782       N785   2.059       .  S
Cu783       N793   2.069       .  S
Cu784       N786   2.068       .  S
Cu784       N792   2.069       .  S
N785        N786   1.321       .  A
N785        C789   1.343       .  A
N786        C787   1.344       .  A
C787        C788   1.384       .  A
C787        H790   1.082       .  S
C788        C789   1.380       .  A
C789        H791   1.082       .  S
N792        N793   1.322       .  A
N792        C796   1.341       .  A
N793        C794   1.345       .  A
C794        C795   1.385       .  A
C794        H797   1.081       .  S
C795        C796   1.385       .  A
C795       C2009   1.479       .  S
C796        H798   1.082       .  S
N799        N800   1.322       .  A
N799        C803   1.343       .  A
N799       Cu807   2.073       .  S
N800        C801   1.347       .  A
N800       Cu806   2.081       .  S
C801        C802   1.386       .  A
C801        H804   1.082       .  S
C802        C803   1.385       .  A
C802       C1906   1.482       .  S
C803        H805   1.082       .  S
Cu806       N809   2.081       .  S
Cu807       N817   2.071       .  S
Cu808       N810   2.054       .  S
Cu808       N816   2.054       .  S
N809        N810   1.321       .  A
N809        C813   1.347       .  A
N810        C811   1.340       .  A
C811        C812   1.382       .  A
C811        H814   1.082       .  S
C812        C813   1.388       .  A
C812       C1899   1.479       .  S
C813        H815   1.081       .  S
N816        N817   1.320       .  A
N816        C820   1.342       .  A
N817        C818   1.343       .  A
C818        C819   1.387       .  A
C818        H821   1.081       .  S
C819        C820   1.384       .  A
C819       C1886   1.478       .  S
C820        H822   1.082       .  S
N823        N824   1.322       .  A
N823        C827   1.345       .  A
N823       Cu831   2.077       .  S
N824        C825   1.343       .  A
N824       Cu830   2.070       .  S
C825        C826   1.387       .  A
C825        H828   1.081       .  S
C826        C827   1.389       .  A
C826       C1866   1.487       .  S
C827        H829   1.080       .  S
Cu830       N833   2.069       .  S
Cu831       N841   2.075       .  S
Cu832       N834   2.053       .  S
Cu832       N840   2.053       .  S
N833        N834   1.321       .  A
N833        C837   1.344       .  A
N834        C835   1.342       .  A
C835        C836   1.378       .  A
C835        H838   1.082       .  S
C836        C837   1.382       .  A
C836       C1045   1.475       .  S
C837        H839   1.082       .  S
N840        N841   1.320       .  A
N840        C844   1.340   1_455  A
N841        C842   1.346   1_455  A
C842        C843   1.388       .  A
C842        H845   1.081       .  S
C843        C844   1.382       .  A
C843       C1876   1.478       .  S
C844        H846   1.082       .  S
N847        N848   1.322       .  A
N847        C851   1.348       .  A
N847       Cu855   2.086       .  S
N848        C849   1.341       .  A
N848       Cu854   2.067       .  S
C849        C850   1.385       .  A
C849        H852   1.081       .  S
C850        C851   1.389       .  A
C850       C1846   1.485       .  S
C851        H853   1.082       .  S
Cu854       N857   2.065       .  S
Cu855       N865   2.085       .  S
Cu856       N858   2.047       .  S
Cu856       N864   2.048       .  S
N857        N858   1.319       .  A
N857        C861   1.344       .  A
N858        C859   1.342       .  A
C859        C860   1.379       .  A
C859        H862   1.082       .  S
C860        C861   1.383       .  A
C860        C987   1.474       .  S
C861        H863   1.082       .  S
N864        N865   1.322       .  A
N864        C868   1.338       .  A
N865        C866   1.348       .  A
C866        C867   1.388       .  A
C866        H869   1.082       .  S
C867        C868   1.378       .  A
C867       C1859   1.473   1_565  S
C868        H870   1.082       .  S
N871        N872   1.321       .  A
N871        C875   1.343       .  A
N871       Cu879   2.062       .  S
N872        C873   1.342       .  A
N872       Cu878   2.072       .  S
C873        C874   1.386       .  A
C873        H876   1.081       .  S
C874        C875   1.384       .  A
C874       C1856   1.480       .  S
C875        H877   1.082       .  S
Cu878       N881   2.072       .  S
Cu879       N889   2.062       .  S
Cu880       N882   2.066       .  S
Cu880       N888   2.066       .  S
N881        N882   1.320       .  A
N881        C885   1.345       .  A
N882        C883   1.344       .  A
C883        C884   1.385       .  A
C883        H886   1.082       .  S
C884        C885   1.387       .  A
C884       C2119   1.480       .  S
C885        H887   1.082       .  S
N888        N889   1.321       .  A
N888        C892   1.341       .  A
N889        C890   1.344       .  A
C890        C891   1.384       .  A
C890        H893   1.082       .  S
C891        C892   1.383       .  A
C891       C1879   1.475       .  S
C892        H894   1.082       .  S
N895        N896   1.322       .  A
N895        C899   1.349       .  A
N895       Cu903   2.090       .  S
N896        C897   1.341       .  A
N896       Cu902   2.068       .  S
C897        C898   1.385       .  A
C897        H900   1.082       .  S
C898        C899   1.391       .  A
C898       C1826   1.489       .  S
C899        H901   1.081       .  S
Cu902       N905   2.067       .  S
Cu903       N913   2.090       .  S
Cu904       N906   2.070       .  S
Cu904       N912   2.070       .  S
N905        N906   1.321       .  A
N905        C909   1.343       .  A
N906        C907   1.347       .  A
C907        C908   1.383       .  A
C907        H910   1.082       .  S
C908        C909   1.380       .  A
C908       C1106   1.478       .  S
C909        H911   1.082       .  S
N912        N913   1.323       .  A
N912        C916   1.341       .  A
N913        C914   1.349       .  A
C914        C915   1.389       .  A
C914        H917   1.082       .  S
C915        C916   1.384       .  A
C915       C1839   1.484       .  S
C916        H918   1.081       .  S
N919        N920   1.320       .  A
N919        C923   1.347       .  A
N919       Cu927   2.068       .  S
N920        C921   1.340       .  A
N920       Cu926   2.059       .  S
C921        C922   1.382       .  A
C921        H924   1.082       .  S
C922        C923   1.386       .  A
C922       C1809   1.475       .  S
C923        H925   1.082       .  S
Cu926       N929   2.059       .  S
Cu927       N937   2.068       .  S
Cu928       N930   2.075       .  S
Cu928       N936   2.076       .  S
N929        N930   1.321       .  A
N929        C933   1.342       .  A
N930        C931   1.347       .  A
C931        C932   1.384       .  A
C931        H934   1.082       .  S
C932        C933   1.378       .  A
C932        C990   1.477       .  S
C933        H935   1.082       .  S
N936        N937   1.323       .  A
N936        C940   1.342       .  A
N937        C938   1.344       .  A
C938        C939   1.385       .  A
C938        H941   1.081       .  S
C939        C940   1.386       .  A
C939       C1816   1.482   1_565  S
C940        H942   1.082       .  S
N943        N944   1.322       .  A
N943        C947   1.345       .  A
N943       Cu951   2.070       .  S
N944        C945   1.342       .  A
N944       Cu950   2.067       .  S
C945        C946   1.383       .  A
C945        H948   1.082       .  S
C946        C947   1.384       .  A
C946       C1819   1.475       .  S
C947        H949   1.082       .  S
Cu950       N953   2.067       .  S
Cu951       N961   2.071       .  S
Cu952       N954   2.071       .  S
Cu952       N960   2.072       .  S
N953        N954   1.320       .  A
N953        C957   1.343       .  A
N954        C955   1.345       .  A
C955        C956   1.388       .  A
C955        H958   1.081       .  S
C956        C957   1.387       .  A
C956       C2139   1.485       .  S
C957        H959   1.082       .  S
N960        N961   1.321       .  A
N960        C964   1.341       .  A
N961        C962   1.346       .  A
C962        C963   1.389       .  A
C962        H965   1.081       .  S
C963        C964   1.387       .  A
C963       C1836   1.487       .  S
C964        H966   1.081       .  S
N967        C972   1.353       .  A
N967        C971   1.351       .  A
N967        H999   1.038       .  S
N968        C975   1.350       .  A
N968        C976   1.351       .  A
N969        C974   1.351       .  A
N969        C973   1.353       .  A
N969       H1000   1.035       .  S
N970        C977   1.351       .  A
N970        C978   1.350       .  A
C971        C979   1.388       .  A
C971        C987   1.414       .  A
C972        C988   1.411       .  A
C972        C980   1.386       .  A
C973        C981   1.387       .  A
C973        C990   1.414       .  A
C974        C989   1.414       .  A
C974        C982   1.387       .  A
C975        C987   1.412       .  A
C975        C983   1.387       .  A
C976        C990   1.412       .  A
C976        C984   1.386       .  A
C977        C985   1.386       .  A
C977        C988   1.409       .  A
C978        C986   1.387       .  A
C978        C989   1.412       .  A
C979        C980   1.373       .  A
C979        H991   1.082       .  S
C980        H992   1.082       .  S
C981        C982   1.375       .  A
C981        H993   1.082       .  S
C982        H994   1.082       .  S
C983        C984   1.371       .  A
C983        H995   1.082       .  S
C984        H996   1.082       .  S
C985        C986   1.371       .  A
C985        H997   1.082       .  S
C986        H998   1.082       .  S
C988       C1004   1.475       .  S
C989       C1062   1.473       .  S
N1001      N1002   1.323       .  A
N1001      C1005   1.345       .  A
N1001     Cu1009   2.075       .  S
N1002      C1003   1.343       .  A
N1002     Cu1008   2.065       .  S
C1003      C1004   1.378       .  A
C1003      H1006   1.082       .  S
C1004      C1005   1.382       .  A
C1005      H1007   1.082       .  S
Cu1008     N1011   2.065       .  S
Cu1009     N1019   2.075       .  S
Cu1010     N1012   2.061       .  S
Cu1010     N1018   2.062       .  S
N1011      N1012   1.321       .  A
N1011      C1015   1.343       .  A
N1012      C1013   1.344       .  A
C1013      C1014   1.380       .  A
C1013      H1016   1.082       .  S
C1014      C1015   1.380       .  A
C1014      C1104   1.474       .  S
C1015      H1017   1.082       .  S
N1018      N1019   1.322       .  A
N1018      C1022   1.342       .  A
N1019      C1020   1.345       .  A
C1020      C1021   1.386       .  A
C1020      H1023   1.082       .  S
C1021      C1022   1.383       .  A
C1021      C2069   1.478       .  S
C1022      H1024   1.081       .  S
N1025      C1030   1.354       .  A
N1025      C1029   1.352       .  A
N1025      H1057   1.038       .  S
N1026      C1033   1.350       .  A
N1026      C1034   1.352       .  A
N1027      C1032   1.350       .  A
N1027      C1031   1.352       .  A
N1027      H1058   1.032       .  S
N1028      C1035   1.352       .  A
N1028      C1036   1.351       .  A
C1029      C1037   1.388       .  A
C1029      C1045   1.414       .  A
C1030      C1046   1.414       .  A
C1030      C1038   1.387       .  A
C1031      C1039   1.388       .  A
C1031      C1048   1.415       .  A
C1032      C1047   1.415       .  A
C1032      C1040   1.388       .  A
C1033      C1045   1.413       .  A
C1033      C1041   1.387       .  A
C1034      C1048   1.414       .  A
C1034      C1042   1.386       .  A
C1035      C1043   1.386       .  A
C1035      C1046   1.412       .  A
C1036      C1044   1.388       .  A
C1036      C1047   1.416       .  A
C1037      C1038   1.372       .  A
C1037      H1049   1.082       .  S
C1038      H1050   1.082       .  S
C1039      C1040   1.373       .  A
C1039      H1051   1.082       .  S
C1040      H1052   1.082       .  S
C1041      C1042   1.371       .  A
C1041      H1053   1.082       .  S
C1042      H1054   1.082       .  S
C1043      C1044   1.370       .  A
C1043      H1055   1.082       .  S
C1044      H1056   1.082       .  S
C1046      C1120   1.479       .  S
C1047      C1072   1.472       .  S
C1048      C1178   1.476       .  S
N1059      N1060   1.322       .  A
N1059      C1063   1.347       .  A
N1059     Cu1067   2.078       .  S
N1060      C1061   1.340       .  A
N1060     Cu1066   2.052       .  S
C1061      C1062   1.375       .  A
C1061      H1064   1.082       .  S
C1062      C1063   1.384       .  A
C1063      H1065   1.082       .  S
Cu1066     N1069   2.052       .  S
Cu1067     N1077   2.079       .  S
Cu1068     N1070   2.063       .  S
Cu1068     N1076   2.065       .  S
N1069      N1070   1.321       .  A
N1069      C1073   1.342       .  A
N1070      C1071   1.344       .  A
C1071      C1072   1.381       .  A
C1071      H1074   1.082       .  S
C1072      C1073   1.378       .  A
C1073      H1075   1.082       .  S
N1076      N1077   1.322       .  A
N1076      C1080   1.343       .  A
N1077      C1078   1.345       .  A
C1078      C1079   1.388       .  A
C1078      H1081   1.081       .  S
C1079      C1080   1.384       .  A
C1079      C2149   1.482       .  S
C1080      H1082   1.082       .  S
N1083      C1088   1.353       .  A
N1083      C1087   1.352       .  A
N1083      H1115   1.035       .  S
N1084      C1091   1.351       .  A
N1084      C1092   1.352       .  A
N1085      C1090   1.352       .  A
N1085      C1089   1.353       .  A
N1085      H1116   1.034       .  S
N1086      C1093   1.351       .  A
N1086      C1094   1.350       .  A
C1087      C1095   1.389       .  A
C1087      C1103   1.415       .  A
C1088      C1104   1.413       .  A
C1088      C1096   1.386       .  A
C1089      C1097   1.387       .  A
C1089      C1106   1.415       .  A
C1090      C1105   1.415       .  A
C1090      C1098   1.387       .  A
C1091      C1103   1.412       .  A
C1091      C1099   1.386       .  A
C1092      C1106   1.414       .  A
C1092      C1100   1.387       .  A
C1093      C1101   1.385       .  A
C1093      C1104   1.409       .  A
C1094      C1102   1.388       .  A
C1094      C1105   1.413       .  A
C1095      C1096   1.372       .  A
C1095      H1107   1.082       .  S
C1096      H1108   1.082       .  S
C1097      C1098   1.375       .  A
C1097      H1109   1.082       .  S
C1098      H1110   1.082       .  S
C1099      C1100   1.372       .  A
C1099      H1111   1.082       .  S
C1100      H1112   1.082       .  S
C1101      C1102   1.371       .  A
C1101      H1113   1.082       .  S
C1102      H1114   1.082       .  S
C1103      C1130   1.473       .  S
C1105      C1154   1.472       .  S
N1117      N1118   1.323       .  A
N1117      C1121   1.344       .  A
N1117     Cu1125   2.069       .  S
N1118      C1119   1.345       .  A
N1118     Cu1124   2.073       .  S
C1119      C1120   1.382       .  A
C1119      H1122   1.082       .  S
C1120      C1121   1.381       .  A
C1121      H1123   1.082       .  S
Cu1124     N1127   2.072       .  S
Cu1125     N1135   2.069       .  S
Cu1126     N1128   2.056       .  S
Cu1126     N1134   2.056       .  S
N1127      N1128   1.322       .  A
N1127      C1131   1.344       .  A
N1128      C1129   1.342       .  A
C1129      C1130   1.378       .  A
C1129      H1132   1.082       .  S
C1130      C1131   1.381       .  A
C1131      H1133   1.082       .  S
N1134      N1135   1.321       .  A
N1134      C1138   1.342       .  A
N1135      C1136   1.344       .  A
C1136      C1137   1.385       .  A
C1136      H1139   1.082       .  S
C1137      C1138   1.382       .  A
C1137      C2196   1.474       .  S
C1138      H1140   1.082       .  S
N1141      N1142   1.321       .  A
N1141      C1145   1.349       .  A
N1141     Cu1149   2.080       .  S
N1142      C1143   1.339       .  A
N1142     Cu1148   2.062       .  S
C1143      C1144   1.383       .  A
C1143      H1146   1.082       .  S
C1144      C1145   1.389       .  A
C1144      C1789   1.482       .  S
C1145      H1147   1.081       .  S
Cu1148     N1151   2.061       .  S
Cu1149     N1159   2.080       .  S
Cu1150     N1152   2.058       .  S
Cu1150     N1158   2.059       .  S
N1151      N1152   1.320       .  A
N1151      C1155   1.343       .  A
N1152      C1153   1.344       .  A
C1153      C1154   1.380       .  A
C1153      H1156   1.082       .  S
C1154      C1155   1.380       .  A
C1155      H1157   1.082       .  S
N1158      N1159   1.322       .  A
N1158      C1162   1.339       .  A
N1159      C1160   1.346       .  A
C1160      C1161   1.388       .  A
C1160      H1163   1.082       .  S
C1161      C1162   1.384       .  A
C1161      C1796   1.482       .  S
C1162      H1164   1.080       .  S
N1165      N1166   1.320       .  A
N1165      C1169   1.346       .  A
N1165     Cu1173   2.072       .  S
N1166      C1167   1.339       .  A
N1166     Cu1172   2.056       .  S
C1167      C1168   1.384       .  A
C1167      H1170   1.081       .  S
C1168      C1169   1.388       .  A
C1168      C1766   1.480       .  S
C1169      H1171   1.082       .  S
Cu1172     N1175   2.056       .  S
Cu1173     N1183   2.073   1_455  S
Cu1174     N1176   2.071       .  S
Cu1174     N1182   2.071   1_455  S
N1175      N1176   1.321       .  A
N1175      C1179   1.342       .  A
N1176      C1177   1.346       .  A
C1177      C1178   1.383       .  A
C1177      H1180   1.082       .  S
C1178      C1179   1.378       .  A
C1179      H1181   1.082       .  S
N1182      N1183   1.323       .  A
N1182      C1186   1.343       .  A
N1183      C1184   1.344       .  A
C1184      C1185   1.385       .  A
C1184      H1187   1.082       .  S
C1185      C1186   1.384       .  A
C1185      C1776   1.478       .  S
C1186      H1188   1.081       .  S
N1189      N1190   1.322       .  A
N1189      C1193   1.344       .  A
N1189     Cu1197   2.077       .  S
N1190      C1191   1.340       .  A
N1190     Cu1196   2.058       .  S
C1191      C1192   1.384       .  A
C1191      H1194   1.081       .  S
C1192      C1193   1.389       .  A
C1192      C1779   1.483       .  S
C1193      H1195   1.080       .  S
Cu1196     N1199   2.056       .  S
Cu1197     N1207   2.076       .  S
Cu1198     N1200   2.053       .  S
Cu1198     N1206   2.054       .  S
N1199      N1200   1.317       .  A
N1199      C1203   1.342       .  A
N1200      C1201   1.340       .  A
C1201      C1202   1.387       .  A
C1201      H1204   1.081       .  S
C1202      C1203   1.388       .  A
C1202      C2129   1.480       .  S
C1203      H1205   1.080       .  S
N1206      N1207   1.320       .  A
N1206      C1210   1.338       .  A
N1207      C1208   1.347       .  A
C1208      C1209   1.390       .  A
C1208      H1211   1.081       .  S
C1209      C1210   1.383       .  A
C1209      C1799   1.482       .  S
C1210      H1212   1.081       .  S
O1213     Cu1221   1.989       .  S
O1213      C1223   1.275       .  A
O1214     Cu1221   1.991       .  S
O1214      C1224   1.276       .  A
O1215     Cu1221   2.006       .  S
O1215      C1225   1.278       .  A
O1216     Cu1221   2.002       .  S
O1216      C1226   1.279       .  A
O1217     Cu1222   2.009       .  S
O1217      C1226   1.277       .  A
O1218     Cu1222   2.012       .  S
O1218      C1225   1.278       .  A
O1219     Cu1222   2.038       .  S
O1219      C1224   1.282       .  A
O1220     Cu1222   2.037       .  S
O1220      C1223   1.282       .  A
Cu1221    Cu1222   2.367       .  S
C1223      C1829   1.489       .  S
C1224      C1749   1.489       .  S
C1225      C1869   1.485       .  S
C1226      C1759   1.482       .  S
O1227     Cu1235   1.990       .  S
O1227      C1237   1.276       .  A
O1228     Cu1235   1.988       .  S
O1228      C1238   1.275       .  A
O1229     Cu1235   1.997       .  S
O1229      C1239   1.277       .  A
O1230     Cu1235   2.001       .  S
O1230      C1240   1.277       .  A
O1231     Cu1236   2.020       .  S
O1231      C1240   1.279       .  A
O1232     Cu1236   2.018       .  S
O1232      C1239   1.279       .  A
O1233     Cu1236   2.025       .  S
O1233      C1238   1.280       .  A
O1234     Cu1236   2.026       .  S
O1234      C1237   1.280       .  A
Cu1235    Cu1236   2.368       .  S
C1237      C1849   1.485       .  S
C1238      C1726   1.484       .  S
C1239      C1786   1.483       .  S
C1240      C1736   1.485       .  S
N1241      N1242   1.323       .  A
N1241      C1245   1.345       .  A
N1241     Cu1249   2.070       .  S
N1242      C1243   1.345       .  A
N1242     Cu1248   2.089       .  S
C1243      C1244   1.389       .  A
C1243      H1246   1.081       .  S
C1244      C1245   1.384       .  A
C1244      C1746   1.486       .  S
C1245      H1247   1.082       .  S
Cu1248     N1251   2.087       .  S
Cu1249     N1259   2.069       .  S
Cu1250     N1252   2.063       .  S
Cu1250     N1258   2.063       .  S
N1251      N1252   1.322       .  A
N1251      C1255   1.347       .  A
N1252      C1253   1.344       .  A
C1253      C1254   1.380       .  A
C1253      H1256   1.082       .  S
C1254      C1255   1.385       .  A
C1254      C1430   1.481       .  S
C1255      H1257   1.082       .  S
N1258      N1259   1.321       .  A
N1258      C1262   1.340   1_455  A
N1259      C1260   1.346   1_455  A
C1260      C1261   1.387       .  A
C1260      H1263   1.082       .  S
C1261      C1262   1.384       .  A
C1261      C1716   1.479       .  S
C1262      H1264   1.081       .  S
N1265      N1266   1.322       .  A
N1265      C1269   1.347       .  A
N1265     Cu1273   2.077       .  S
N1266      C1267   1.342       .  A
N1266     Cu1272   2.072       .  S
C1267      C1268   1.384       .  A
C1267      H1270   1.082       .  S
C1268      C1269   1.387       .  A
C1268      C1739   1.481       .  S
C1269      H1271   1.082       .  S
Cu1272     N1275   2.071       .  S
Cu1273     N1283   2.076       .  S
Cu1274     N1276   2.061       .  S
Cu1274     N1282   2.061       .  S
N1275      N1276   1.321       .  A
N1275      C1279   1.345       .  A
N1276      C1277   1.343       .  A
C1277      C1278   1.380       .  A
C1277      H1280   1.082       .  S
C1278      C1279   1.384       .  A
C1278      C1487   1.479       .  S
C1279      H1281   1.082       .  S
N1282      N1283   1.322       .  A
N1282      C1286   1.341       .  A
N1283      C1284   1.346       .  A
C1284      C1285   1.386       .  A
C1284      H1287   1.082       .  S
C1285      C1286   1.382       .  A
C1285      C1709   1.476   1_565  S
C1286      H1288   1.082       .  S
N1289      N1290   1.321       .  A
N1289      C1293   1.345       .  A
N1289     Cu1297   2.072       .  S
N1290      C1291   1.340       .  A
N1290     Cu1296   2.063       .  S
C1291      C1292   1.384       .  A
C1291      H1294   1.080       .  S
C1292      C1293   1.387       .  A
C1292      C1706   1.481       .  S
C1293      H1295   1.082       .  S
Cu1296     N1299   2.062       .  S
Cu1297     N1307   2.071       .  S
Cu1298     N1300   2.061       .  S
Cu1298     N1306   2.062       .  S
N1299      N1300   1.318       .  A
N1299      C1303   1.344       .  A
N1300      C1301   1.342       .  A
C1301      C1302   1.387       .  A
C1301      H1304   1.081       .  S
C1302      C1303   1.387       .  A
C1302      C1969   1.481       .  S
C1303      H1305   1.081       .  S
N1306      N1307   1.322       .  A
N1306      C1310   1.339       .  A
N1307      C1308   1.346       .  A
C1308      C1309   1.386       .  A
C1308      H1311   1.081       .  S
C1309      C1310   1.383       .  A
C1309      C1719   1.478       .  S
C1310      H1312   1.082       .  S
N1313      N1314   1.321       .  A
N1313      C1317   1.349       .  A
N1313     Cu1321   2.078       .  S
N1314      C1315   1.339       .  A
N1314     Cu1320   2.062       .  S
C1315      C1316   1.382       .  A
C1315      H1318   1.081       .  S
C1316      C1317   1.388       .  A
C1316      C1756   1.479       .  S
C1317      H1319   1.082       .  S
Cu1320     N1323   2.062       .  S
Cu1321     N1331   2.079       .  S
Cu1322     N1324   2.073       .  S
Cu1322     N1330   2.074       .  S
N1323      N1324   1.320       .  A
N1323      C1327   1.342       .  A
N1324      C1325   1.348       .  A
C1325      C1326   1.385       .  A
C1325      H1328   1.082       .  S
C1326      C1327   1.381       .  A
C1326      C1524   1.482       .  S
C1327      H1329   1.082       .  S
N1330      N1331   1.323       .  A
N1330      C1334   1.340       .  A
N1331      C1332   1.347       .  A
C1332      C1333   1.388       .  A
C1332      H1335   1.081       .  S
C1333      C1334   1.385       .  A
C1333      C1696   1.484       .  S
C1334      H1336   1.081       .  S
N1337      N1338   1.320       .  A
N1337      C1341   1.345       .  A
N1337     Cu1345   2.063       .  S
N1338      C1339   1.340       .  A
N1338     Cu1344   2.057       .  S
C1339      C1340   1.382       .  A
C1339      H1342   1.081       .  S
C1340      C1341   1.385       .  A
C1340      C1676   1.474       .  S
C1341      H1343   1.082       .  S
Cu1344     N1347   2.057       .  S
Cu1345     N1355   2.064       .  S
Cu1346     N1348   2.069       .  S
Cu1346     N1354   2.069       .  S
N1347      N1348   1.320       .  A
N1347      C1351   1.342       .  A
N1348      C1349   1.345       .  A
C1349      C1350   1.385       .  A
C1349      H1352   1.082       .  S
C1350      C1351   1.380       .  A
C1350      C1490   1.480       .  S
C1351      H1353   1.082       .  S
N1354      N1355   1.322       .  A
N1354      C1358   1.342       .  A
N1355      C1356   1.342       .  A
C1356      C1357   1.384       .  A
C1356      H1359   1.082       .  S
C1357      C1358   1.384       .  A
C1357      C1686   1.476       .  S
C1358      H1360   1.081       .  S
N1361      N1362   1.320       .  A
N1361      C1365   1.345       .  A
N1361     Cu1369   2.065       .  S
N1362      C1363   1.341       .  A
N1362     Cu1368   2.058       .  S
C1363      C1364   1.383       .  A
C1363      H1366   1.082       .  S
C1364      C1365   1.386       .  A
C1364      C1916   1.476       .  S
C1365      H1367   1.082       .  S
Cu1368     N1371   2.059       .  S
Cu1369     N1379   2.066       .  S
Cu1370     N1372   2.068       .  S
Cu1370     N1378   2.069       .  S
N1371      N1372   1.320       .  A
N1371      C1375   1.341       .  A
N1372      C1373   1.343       .  A
C1373      C1374   1.388       .  A
C1373      H1376   1.080       .  S
C1374      C1375   1.385       .  A
C1374      C1689   1.482       .  S
C1375      H1377   1.081       .  S
N1378      N1379   1.321       .  A
N1378      C1382   1.346       .  A
N1379      C1380   1.340       .  A
C1380      C1381   1.384       .  A
C1380      H1383   1.081       .  S
C1381      C1382   1.386       .  A
C1381      C1699   1.479       .  S
C1382      H1384   1.082       .  S
N1385      N1386   1.321       .  A
N1385      C1389   1.344       .  A
N1385     Cu1393   2.061       .  S
N1386      C1387   1.342       .  A
N1386     Cu1392   2.062       .  S
C1387      C1388   1.379       .  A
C1387      H1390   1.082       .  S
C1388      C1389   1.381       .  A
C1388      C1489   1.475       .  S
C1389      H1391   1.082       .  S
Cu1392     N1395   2.062       .  S
Cu1393     N1403   2.062       .  S
Cu1394     N1396   2.075       .  S
Cu1394     N1402   2.075       .  S
N1395      N1396   1.322       .  A
N1395      C1399   1.341       .  A
N1396      C1397   1.347       .  A
C1397      C1398   1.385       .  A
C1397      H1400   1.082       .  S
C1398      C1399   1.379       .  A
C1398      C1432   1.480       .  S
C1399      H1401   1.082       .  S
N1402      N1403   1.322       .  A
N1402      C1406   1.343       .  A
N1403      C1404   1.342       .  A
C1404      C1405   1.385   1_554  A
C1404      H1407   1.081       .  S
C1405      C1406   1.387   1_556  A
C1405      C1889   1.481       .  S
C1406      H1408   1.081       .  S
N1409      C1414   1.353       .  A
N1409      C1413   1.352       .  A
N1409      H1441   1.037       .  S
N1410      C1417   1.351       .  A
N1410      C1418   1.352       .  A
N1411      C1416   1.354       .  A
N1411      C1415   1.353       .  A
N1411      H1442   1.035       .  S
N1412      C1419   1.352       .  A
N1412      C1420   1.351       .  A
C1413      C1421   1.387       .  A
C1413      C1429   1.414       .  A
C1414      C1430   1.414       .  A
C1414      C1422   1.387       .  A
C1415      C1423   1.386       .  A
C1415      C1432   1.414       .  A
C1416      C1431   1.418       .  A
C1416      C1424   1.389       .  A
C1417      C1429   1.412       .  A
C1417      C1425   1.386       .  A
C1418      C1432   1.413       .  A
C1418      C1426   1.387       .  A
C1419      C1427   1.385       .  A
C1419      C1430   1.413       .  A
C1420      C1428   1.388       .  A
C1420      C1431   1.415       .  A
C1421      C1422   1.374       .  A
C1421      H1433   1.081       .  S
C1422      H1434   1.082       .  S
C1423      C1424   1.374       .  A
C1423      H1435   1.082       .  S
C1424      H1436   1.081       .  S
C1425      C1426   1.371       .  A
C1425      H1437   1.082       .  S
C1426      H1438   1.082       .  S
C1427      C1428   1.373       .  A
C1427      H1439   1.082       .  S
C1428      H1440   1.082       .  S
C1429      C1538   1.476       .  S
C1431      C1596   1.480       .  S
N1443      N1444   1.324       .  A
N1443      C1447   1.345       .  A
N1443     Cu1451   2.073       .  S
N1444      C1445   1.346       .  A
N1444     Cu1450   2.085       .  S
C1445      C1446   1.382       .  A
C1445      H1448   1.082       .  S
C1446      C1447   1.379       .  A
C1446      C1488   1.479       .  S
C1447      H1449   1.082       .  S
Cu1450     N1453   2.085       .  S
Cu1451     N1461   2.073       .  S
Cu1452     N1454   2.065       .  S
Cu1452     N1460   2.065       .  S
N1453      N1454   1.323       .  A
N1453      C1457   1.347       .  A
N1454      C1455   1.344       .  A
C1455      C1456   1.379       .  A
C1455      H1458   1.082       .  S
C1456      C1457   1.384       .  A
C1456      C1522   1.480       .  S
C1457      H1459   1.082       .  S
N1460      N1461   1.320       .  A
N1460      C1464   1.342       .  A
N1461      C1462   1.346       .  A
C1462      C1463   1.389       .  A
C1462      H1465   1.081       .  S
C1463      C1464   1.385       .  A
C1463      C1939   1.483       .  S
C1464      H1466   1.082       .  S
N1467      C1472   1.355       .  A
N1467      C1471   1.354       .  A
N1467      H1499   1.037       .  S
N1468      C1475   1.350       .  A
N1468      C1476   1.352       .  A
N1469      C1474   1.352       .  A
N1469      C1473   1.353       .  A
N1469      H1500   1.029       .  S
N1470      C1477   1.351       .  A
N1470      C1478   1.351       .  A
C1471      C1479   1.388       .  A
C1471      C1487   1.417       .  A
C1472      C1488   1.414       .  A
C1472      C1480   1.386       .  A
C1473      C1481   1.390       .  A
C1473      C1490   1.421       .  A
C1474      C1489   1.415       .  A
C1474      C1482   1.386       .  A
C1475      C1487   1.414       .  A
C1475      C1483   1.386       .  A
C1476      C1490   1.418       .  A
C1476      C1484   1.388       .  A
C1477      C1485   1.385       .  A
C1477      C1488   1.411       .  A
C1478      C1486   1.388       .  A
C1478      C1489   1.416       .  A
C1479      C1480   1.372       .  A
C1479      H1491   1.082       .  S
C1480      H1492   1.082       .  S
C1481      C1482   1.371       .  A
C1481      H1493   1.081       .  S
C1482      H1494   1.082       .  S
C1483      C1484   1.372       .  A
C1483      H1495   1.082       .  S
C1484      H1496   1.082       .  S
C1485      C1486   1.371       .  A
C1485      H1497   1.082       .  S
C1486      H1498   1.082       .  S
N1501      C1506   1.355       .  A
N1501      C1505   1.352       .  A
N1501      H1533   1.038       .  S
N1502      C1509   1.350       .  A
N1502      C1510   1.351       .  A
N1503      C1508   1.355       .  A
N1503      C1507   1.357       .  A
N1503      H1534   1.033       .  S
N1504      C1511   1.352       .  A
N1504      C1512   1.350       .  A
C1505      C1513   1.388       .  A
C1505      C1521   1.413       .  A
C1506      C1522   1.412       .  A
C1506      C1514   1.387       .  A
C1507      C1515   1.387       .  A
C1507      C1524   1.420       .  A
C1508      C1523   1.422       .  A
C1508      C1516   1.389       .  A
C1509      C1521   1.412       .  A
C1509      C1517   1.386       .  A
C1510      C1524   1.415       .  A
C1510      C1518   1.387       .  A
C1511      C1519   1.384       .  A
C1511      C1522   1.411       .  A
C1512      C1520   1.390       .  A
C1512      C1523   1.419       .  A
C1513      C1514   1.370       .  A
C1513      H1525   1.082       .  S
C1514      H1526   1.082       .  S
C1515      C1516   1.373       .  A
C1515      H1527   1.082       .  S
C1516      H1528   1.082       .  S
C1517      C1518   1.368       .  A
C1517      H1529   1.082       .  S
C1518      H1530   1.082       .  S
C1519      C1520   1.370       .  A
C1519      H1531   1.082       .  S
C1520      H1532   1.082       .  S
C1521      C1548   1.475       .  S
C1523      C1572   1.480       .  S
N1535      N1536   1.323       .  A
N1535      C1539   1.346       .  A
N1535     Cu1543   2.076       .  S
N1536      C1537   1.342       .  A
N1536     Cu1542   2.062       .  S
C1537      C1538   1.378       .  A
C1537      H1540   1.082       .  S
C1538      C1539   1.382       .  A
C1539      H1541   1.082       .  S
Cu1542     N1545   2.061       .  S
Cu1543     N1553   2.077       .  S
Cu1544     N1546   2.047       .  S
Cu1544     N1552   2.048       .  S
N1545      N1546   1.320       .  A
N1545      C1549   1.342       .  A
N1546      C1547   1.341       .  A
C1547      C1548   1.379       .  A
C1547      H1550   1.082       .  S
C1548      C1549   1.382       .  A
C1549      H1551   1.082       .  S
N1552      N1553   1.321       .  A
N1552      C1556   1.339       .  A
N1553      C1554   1.345       .  A
C1554      C1555   1.387       .  A
C1554      H1557   1.082       .  S
C1555      C1556   1.380       .  A
C1555      C1976   1.474       .  S
C1556      H1558   1.082       .  S
N1559      N1560   1.321       .  A
N1559      C1563   1.348       .  A
N1559     Cu1567   2.079       .  S
N1560      C1561   1.339       .  A
N1560     Cu1566   2.058       .  S
C1561      C1562   1.382       .  A
C1561      H1564   1.082       .  S
C1562      C1563   1.389       .  A
C1562      C1729   1.481       .  S
C1563      H1565   1.081       .  S
Cu1566     N1569   2.057       .  S
Cu1567     N1577   2.080       .  S
Cu1568     N1570   2.068       .  S
Cu1568     N1576   2.070       .  S
N1569      N1570   1.320       .  A
N1569      C1573   1.342       .  A
N1570      C1571   1.346       .  A
C1571      C1572   1.383       .  A
C1571      H1574   1.082       .  S
C1572      C1573   1.381       .  A
C1573      H1575   1.082       .  S
N1576      N1577   1.323       .  A
N1576      C1580   1.341       .  A
N1577      C1578   1.346       .  A
C1578      C1579   1.387       .  A
C1578      H1581   1.082       .  S
C1579      C1580   1.384       .  A
C1579      C1669   1.482       .  S
C1580      H1582   1.081       .  S
N1583      N1584   1.322       .  A
N1583      C1587   1.346       .  A
N1583     Cu1591   2.071       .  S
N1584      C1585   1.342       .  A
N1584     Cu1590   2.070       .  S
C1585      C1586   1.385       .  A
C1585      H1588   1.082       .  S
C1586      C1587   1.386       .  A
C1586      C1646   1.481       .  S
C1587      H1589   1.081       .  S
Cu1590     N1593   2.069       .  S
Cu1591     N1601   2.071       .  S
Cu1592     N1594   2.068       .  S
Cu1592     N1600   2.069       .  S
N1593      N1594   1.322       .  A
N1593      C1597   1.345       .  A
N1594      C1595   1.344       .  A
C1595      C1596   1.382       .  A
C1595      H1598   1.082       .  S
C1596      C1597   1.382       .  A
C1597      H1599   1.082       .  S
N1600      N1601   1.321       .  A
N1600      C1604   1.342   1_455  A
N1601      C1602   1.345   1_455  A
C1602      C1603   1.387       .  A
C1602      H1605   1.082       .  S
C1603      C1604   1.387       .  A
C1603      C1656   1.484       .  S
C1604      H1606   1.081       .  S
N1607      N1608   1.322       .  A
N1607      C1611   1.347       .  A
N1607     Cu1615   2.075       .  S
N1608      C1609   1.341       .  A
N1608     Cu1614   2.068       .  S
C1609      C1610   1.384       .  A
C1609      H1612   1.082       .  S
C1610      C1611   1.387       .  A
C1610      C1659   1.481       .  S
C1611      H1613   1.081       .  S
Cu1614     N1617   2.067       .  S
Cu1615     N1625   2.076       .  S
Cu1616     N1618   2.072       .  S
Cu1616     N1624   2.072       .  S
N1617      N1618   1.320       .  A
N1617      C1621   1.343       .  A
N1618      C1619   1.346       .  A
C1619      C1620   1.387       .  A
C1619      H1622   1.082       .  S
C1620      C1621   1.385       .  A
C1620      C1929   1.480       .  S
C1621      H1623   1.082       .  S
N1624      N1625   1.323       .  A
N1624      C1628   1.341       .  A
N1625      C1626   1.347       .  A
C1626      C1627   1.387       .  A
C1626      H1629   1.081       .  S
C1627      C1628   1.384       .  A
C1627      C1666   1.481       .  S
C1628      H1630   1.082       .  S
O1631     Cu1639   2.009       .  S
O1631      C1641   1.278       .  A
O1632     Cu1639   2.009       .  S
O1632      C1642   1.278       .  A
O1633     Cu1639   2.020       .  S
O1633      C1643   1.280       .  A
O1634     Cu1639   2.019       .  S
O1634      C1644   1.279       .  A
O1635     Cu1640   1.990       .  S
O1635      C1644   1.276       .  A
O1636     Cu1640   1.988       .  S
O1636      C1643   1.276       .  A
O1637     Cu1640   1.990       .  S
O1637      C1642   1.277       .  A
O1638     Cu1640   1.993       .  S
O1638      C1641   1.277       .  A
Cu1639    Cu1640   2.370       .  S
C1641      C1679   1.474       .  S
C1642      C1769   1.479       .  S
C1643      C1806   1.482       .  S
C1644      C1649   1.480       .  S
C1645      C1646   1.403       .  A
C1645      C1650   1.393       .  A
C1645      H1652   1.083       .  S
C1646      C1647   1.409       .  A
C1647      C1648   1.401       .  A
C1647      F1654   1.357       .  S
C1648      C1649   1.406       .  A
C1648      H1653   1.083       .  S
C1649      C1650   1.408       .  A
C1650      F1651   1.358       .  S
C1655      C1656   1.407       .  A
C1655      C1660   1.400       .  A
C1655      H1662   1.082       .  S
C1656      C1657   1.408       .  A
C1657      C1658   1.394       .  A
C1657      F1664   1.356       .  S
C1658      C1659   1.404       .  A
C1658      H1663   1.083       .  S
C1659      C1660   1.407       .  A
C1660      F1661   1.357       .  S
C1665      C1666   1.403       .  A
C1665      C1670   1.394       .  A
C1665      H1672   1.083       .  S
C1666      C1667   1.408       .  A
C1667      C1668   1.400       .  A
C1667      F1674   1.357       .  S
C1668      C1669   1.406       .  A
C1668      H1673   1.083       .  S
C1669      C1670   1.408       .  A
C1670      F1671   1.357       .  S
C1675      C1676   1.404       .  A
C1675      C1680   1.398       .  A
C1675      H1682   1.083       .  S
C1676      C1677   1.406       .  A
C1677      C1678   1.393       .  A
C1677      F1684   1.357       .  S
C1678      C1679   1.403       .  A
C1678      H1683   1.083       .  S
C1679      C1680   1.408       .  A
C1680      F1681   1.357       .  S
C1685      C1686   1.403   1_545  A
C1685      C1690   1.395       .  A
C1685      H1692   1.083       .  S
C1686      C1687   1.405       .  A
C1687      C1688   1.395   1_565  A
C1687      F1694   1.357       .  S
C1688      C1689   1.406       .  A
C1688      H1693   1.082       .  S
C1689      C1690   1.409       .  A
C1690      F1691   1.355       .  S
C1695      C1696   1.404       .  A
C1695      C1700   1.392       .  A
C1695      H1702   1.082       .  S
C1696      C1697   1.410       .  A
C1697      C1698   1.401       .  A
C1697      F1704   1.356       .  S
C1698      C1699   1.405       .  A
C1698      H1703   1.083       .  S
C1699      C1700   1.405       .  A
C1700      F1701   1.357       .  S
C1705      C1706   1.406       .  A
C1705      C1710   1.399       .  A
C1705      H1712   1.082       .  S
C1706      C1707   1.409       .  A
C1707      C1708   1.393       .  A
C1707      F1714   1.356       .  S
C1708      C1709   1.402       .  A
C1708      H1713   1.083       .  S
C1709      C1710   1.405       .  A
C1710      F1711   1.357       .  S
C1715      C1716   1.406       .  A
C1715      C1720   1.401       .  A
C1715      H1722   1.083       .  S
C1716      C1717   1.406       .  A
C1717      C1718   1.391       .  A
C1717      F1724   1.357       .  S
C1718      C1719   1.403       .  A
C1718      H1723   1.083       .  S
C1719      C1720   1.408       .  A
C1720      F1721   1.357       .  S
C1725      C1726   1.407       .  A
C1725      C1730   1.402       .  A
C1725      H1732   1.083       .  S
C1726      C1727   1.410       .  A
C1727      C1728   1.392       .  A
C1727      F1734   1.358       .  S
C1728      C1729   1.403       .  A
C1728      H1733   1.083       .  S
C1729      C1730   1.407       .  A
C1730      F1731   1.356       .  S
C1735      C1736   1.407       .  A
C1735      C1740   1.401       .  A
C1735      H1742   1.083       .  S
C1736      C1737   1.409       .  A
C1737      C1738   1.395       .  A
C1737      F1744   1.357       .  S
C1738      C1739   1.403       .  A
C1738      H1743   1.083       .  S
C1739      C1740   1.407       .  A
C1740      F1741   1.357       .  S
C1745      C1746   1.408       .  A
C1745      C1750   1.404       .  A
C1745      H1752   1.083       .  S
C1746      C1747   1.405       .  A
C1747      C1748   1.396       .  A
C1747      F1754   1.357       .  S
C1748      C1749   1.408       .  A
C1748      H1753   1.083       .  S
C1749      C1750   1.409       .  A
C1750      F1751   1.357       .  S
C1755      C1756   1.404       .  A
C1755      C1760   1.402       .  A
C1755      H1762   1.083       .  S
C1756      C1757   1.406       .  A
C1757      C1758   1.392       .  A
C1757      F1764   1.357       .  S
C1758      C1759   1.404       .  A
C1758      H1763   1.083       .  S
C1759      C1760   1.411       .  A
C1760      F1761   1.357       .  S
C1765      C1766   1.405       .  A
C1765      C1770   1.400       .  A
C1765      H1772   1.083       .  S
C1766      C1767   1.407       .  A
C1767      C1768   1.392       .  A
C1767      F1774   1.356       .  S
C1768      C1769   1.404       .  A
C1768      H1773   1.083       .  S
C1769      C1770   1.409       .  A
C1770      F1771   1.357       .  S
C1775      C1776   1.403       .  A
C1775      C1780   1.397       .  A
C1775      H1782   1.083       .  S
C1776      C1777   1.406       .  A
C1777      C1778   1.395       .  A
C1777      F1784   1.357       .  S
C1778      C1779   1.406       .  A
C1778      H1783   1.082       .  S
C1779      C1780   1.409       .  A
C1780      F1781   1.356       .  S
C1785      C1786   1.407       .  A
C1785      C1790   1.403       .  A
C1785      H1792   1.083       .  S
C1786      C1787   1.407       .  A
C1787      C1788   1.392       .  A
C1787      F1794   1.357       .  S
C1788      C1789   1.403       .  A
C1788      H1793   1.083       .  S
C1789      C1790   1.408       .  A
C1790      F1791   1.357       .  S
C1795      C1796   1.406       .  A
C1795      C1800   1.401       .  A
C1795      H1802   1.082       .  S
C1796      C1797   1.408       .  A
C1797      C1798   1.391       .  A
C1797      F1804   1.356       .  S
C1798      C1799   1.404       .  A
C1798      H1803   1.082       .  S
C1799      C1800   1.407       .  A
C1800      F1801   1.356       .  S
C1805      C1806   1.407       .  A
C1805      C1810   1.401       .  A
C1805      H1812   1.083       .  S
C1806      C1807   1.410       .  A
C1807      C1808   1.392       .  A
C1807      F1814   1.358       .  S
C1808      C1809   1.402       .  A
C1808      H1813   1.083       .  S
C1809      C1810   1.406       .  A
C1810      F1811   1.357       .  S
C1815      C1816   1.405       .  A
C1815      C1820   1.394       .  A
C1815      H1822   1.082       .  S
C1816      C1817   1.410       .  A
C1817      C1818   1.398       .  A
C1817      F1824   1.356       .  S
C1818      C1819   1.403       .  A
C1818      H1823   1.083       .  S
C1819      C1820   1.405       .  A
C1820      F1821   1.357       .  S
C1825      C1826   1.404       .  A
C1825      C1830   1.395       .  A
C1825      H1832   1.082       .  S
C1826      C1827   1.410       .  A
C1827      C1828   1.404       .  A
C1827      F1834   1.356       .  S
C1828      C1829   1.407       .  A
C1828      H1833   1.083       .  S
C1829      C1830   1.411       .  A
C1830      F1831   1.358       .  S
C1835      C1836   1.404       .  A
C1835      C1840   1.393       .  A
C1835      H1842   1.082       .  S
C1836      C1837   1.411       .  A
C1837      C1838   1.403       .  A
C1837      F1844   1.356       .  S
C1838      C1839   1.405       .  A
C1838      H1843   1.083       .  S
C1839      C1840   1.407       .  A
C1840      F1841   1.357       .  S
C1845      C1846   1.406       .  A
C1845      C1850   1.402       .  A
C1845      H1852   1.083       .  S
C1846      C1847   1.408       .  A
C1847      C1848   1.394       .  A
C1847      F1854   1.356       .  S
C1848      C1849   1.406       .  A
C1848      H1853   1.083       .  S
C1849      C1850   1.409       .  A
C1850      F1851   1.357       .  S
C1855      C1856   1.408       .  A
C1855      C1860   1.399       .  A
C1855      H1862   1.082       .  S
C1856      C1857   1.407       .  A
C1857      C1858   1.393       .  A
C1857      F1864   1.357       .  S
C1858      C1859   1.403       .  A
C1858      H1863   1.083       .  S
C1859      C1860   1.403       .  A
C1860      F1861   1.357       .  S
C1865      C1866   1.406       .  A
C1865      C1870   1.397       .  A
C1865      H1872   1.082       .  S
C1866      C1867   1.409       .  A
C1867      C1868   1.399       .  A
C1867      F1874   1.356       .  S
C1868      C1869   1.406       .  A
C1868      H1873   1.083       .  S
C1869      C1870   1.408       .  A
C1870      F1871   1.357       .  S
C1875      C1876   1.405       .  A
C1875      C1880   1.394       .  A
C1875      H1882   1.083       .  S
C1876      C1877   1.407       .  A
C1877      C1878   1.398       .  A
C1877      F1884   1.356       .  S
C1878      C1879   1.404       .  A
C1878      H1883   1.083       .  S
C1879      C1880   1.405       .  A
C1880      F1881   1.357       .  S
C1885      C1886   1.404       .  A
C1885      C1890   1.397       .  A
C1885      H1892   1.083       .  S
C1886      C1887   1.405       .  A
C1887      C1888   1.395       .  A
C1887      F1894   1.356       .  S
C1888      C1889   1.405       .  A
C1888      H1893   1.082       .  S
C1889      C1890   1.409       .  A
C1890      F1891   1.357       .  S
C1895      C1896   1.403       .  A
C1895      C1900   1.400       .  A
C1895      H1902   1.083       .  S
C1896      C1897   1.405       .  A
C1897      C1898   1.393       .  A
C1897      F1904   1.357       .  S
C1898      C1899   1.404       .  A
C1898      H1903   1.083       .  S
C1899      C1900   1.408       .  A
C1900      F1901   1.356       .  S
C1905      C1906   1.405       .  A
C1905      C1910   1.402       .  A
C1905      H1912   1.083       .  S
C1906      C1907   1.406       .  A
C1907      C1908   1.396       .  A
C1907      F1914   1.357       .  S
C1908      C1909   1.406       .  A
C1908      H1913   1.083       .  S
C1909      C1910   1.410       .  A
C1910      F1911   1.356       .  S
C1915      C1916   1.403       .  A
C1915      C1920   1.394       .  A
C1915      H1922   1.083       .  S
C1916      C1917   1.406       .  A
C1917      C1918   1.398   1_554  A
C1917      F1924   1.357       .  S
C1918      C1919   1.406       .  A
C1918      H1923   1.083       .  S
C1919      C1920   1.407   1_556  A
C1920      F1921   1.357       .  S
C1925      C1926   1.408       .  A
C1925      C1930   1.399       .  A
C1925      H1932   1.082       .  S
C1926      C1927   1.411       .  A
C1927      C1928   1.398       .  A
C1927      F1934   1.356       .  S
C1928      C1929   1.403       .  A
C1928      H1933   1.083       .  S
C1929      C1930   1.405       .  A
C1930      F1931   1.357       .  S
C1935      C1936   1.406       .  A
C1935      C1940   1.398       .  A
C1935      H1942   1.083       .  S
C1936      C1937   1.406       .  A
C1937      C1938   1.398   1_556  A
C1937      F1944   1.357       .  S
C1938      C1939   1.406       .  A
C1938      H1943   1.082       .  S
C1939      C1940   1.407   1_554  A
C1940      F1941   1.357       .  S
C1945      C1946   1.404       .  A
C1945      C1950   1.395       .  A
C1945      H1952   1.083       .  S
C1946      C1947   1.408       .  A
C1947      C1948   1.400       .  A
C1947      F1954   1.357       .  S
C1948      C1949   1.404       .  A
C1948      H1953   1.083       .  S
C1949      C1950   1.406       .  A
C1950      F1951   1.357       .  S
C1955      C1956   1.404       .  A
C1955      C1960   1.395       .  A
C1955      H1962   1.082       .  S
C1956      C1957   1.408       .  A
C1957      C1958   1.402       .  A
C1957      F1964   1.357       .  S
C1958      C1959   1.406       .  A
C1958      H1963   1.083       .  S
C1959      C1960   1.407       .  A
C1960      F1961   1.357       .  S
C1965      C1966   1.407       .  A
C1965      C1970   1.398       .  A
C1965      H1972   1.082       .  S
C1966      C1967   1.408       .  A
C1967      C1968   1.395       .  A
C1967      F1974   1.356       .  S
C1968      C1969   1.405       .  A
C1968      H1973   1.082       .  S
C1969      C1970   1.407       .  A
C1970      F1971   1.357       .  S
C1975      C1976   1.405       .  A
C1975      C1980   1.394   1_554  A
C1975      H1982   1.083       .  S
C1976      C1977   1.404       .  A
C1977      C1978   1.397   1_554  A
C1977      F1984   1.357       .  S
C1978      C1979   1.405       .  A
C1978      H1983   1.083       .  S
C1979      C1980   1.405       .  A
C1980      F1981   1.357       .  S
C1985      C1986   1.407       .  A
C1985      C1990   1.400       .  A
C1985      H1992   1.083       .  S
C1986      C1987   1.407       .  A
C1987      C1988   1.395       .  A
C1987      F1994   1.357       .  S
C1988      C1989   1.403       .  A
C1988      H1993   1.083       .  S
C1989      C1990   1.405       .  A
C1990      F1991   1.357       .  S
C1995      C1996   1.408       .  A
C1995      C2000   1.401       .  A
C1995      H2002   1.082       .  S
C1996      C1997   1.412       .  A
C1997      C1998   1.395       .  A
C1997      F2004   1.355       .  S
C1998      C1999   1.402       .  A
C1998      H2003   1.083       .  S
C1999      C2000   1.405       .  A
C2000      F2001   1.357       .  S
C2005      C2006   1.407       .  A
C2005      C2010   1.399       .  A
C2005      H2012   1.083       .  S
C2006      C2007   1.409       .  A
C2007      C2008   1.393       .  A
C2007      F2014   1.357       .  S
C2008      C2009   1.403       .  A
C2008      H2013   1.082       .  S
C2009      C2010   1.408       .  A
C2010      F2011   1.357       .  S
C2015      C2016   1.406       .  A
C2015      C2020   1.402       .  A
C2015      H2022   1.083       .  S
C2016      C2017   1.407       .  A
C2017      C2018   1.394       .  A
C2017      F2024   1.358       .  S
C2018      C2019   1.405       .  A
C2018      H2023   1.082       .  S
C2019      C2020   1.410       .  A
C2020      F2021   1.356       .  S
C2025      C2026   1.405       .  A
C2025      C2030   1.395       .  A
C2025      H2032   1.083       .  S
C2026      C2027   1.409       .  A
C2027      C2028   1.403       .  A
C2027      F2034   1.357       .  S
C2028      C2029   1.407       .  A
C2028      H2033   1.082       .  S
C2029      C2030   1.409       .  A
C2030      F2031   1.357       .  S
C2035      C2036   1.406       .  A
C2035      C2040   1.395       .  A
C2035      H2042   1.083       .  S
C2036      C2037   1.408       .  A
C2037      C2038   1.399       .  A
C2037      F2044   1.357       .  S
C2038      C2039   1.406       .  A
C2038      H2043   1.082       .  S
C2039      C2040   1.408       .  A
C2040      F2041   1.357       .  S
C2045      C2046   1.407       .  A
C2045      C2050   1.403       .  A
C2045      H2052   1.083       .  S
C2046      C2047   1.408       .  A
C2047      C2048   1.393       .  A
C2047      F2054   1.358       .  S
C2048      C2049   1.402       .  A
C2048      H2053   1.083       .  S
C2049      C2050   1.407       .  A
C2050      F2051   1.357       .  S
C2055      C2056   1.406       .  A
C2055      C2060   1.400       .  A
C2055      H2062   1.083       .  S
C2056      C2057   1.409       .  A
C2057      C2058   1.396       .  A
C2057      F2064   1.358       .  S
C2058      C2059   1.406       .  A
C2058      H2063   1.082       .  S
C2059      C2060   1.409       .  A
C2060      F2061   1.356       .  S
C2065      C2066   1.405       .  A
C2065      C2070   1.396       .  A
C2065      H2072   1.082       .  S
C2066      C2067   1.410       .  A
C2067      C2068   1.397       .  A
C2067      F2074   1.356       .  S
C2068      C2069   1.403       .  A
C2068      H2073   1.083       .  S
C2069      C2070   1.407       .  A
C2070      F2071   1.357       .  S
C2075      C2076   1.404       .  A
C2075      C2080   1.395       .  A
C2075      H2082   1.083       .  S
C2076      C2077   1.408       .  A
C2077      C2078   1.401       .  A
C2077      F2084   1.356       .  S
C2078      C2079   1.406       .  A
C2078      H2083   1.083       .  S
C2079      C2080   1.408       .  A
C2080      F2081   1.358       .  S
C2085      C2086   1.402       .  A
C2085      C2090   1.397       .  A
C2085      H2092   1.083       .  S
C2086      C2087   1.405       .  A
C2087      C2088   1.396       .  A
C2087      F2094   1.358       .  S
C2088      C2089   1.406       .  A
C2088      H2093   1.083       .  S
C2089      C2090   1.410       .  A
C2090      F2091   1.356       .  S
C2095      C2096   1.407       .  A
C2095      C2100   1.403       .  A
C2095      H2102   1.083       .  S
C2096      C2097   1.407       .  A
C2097      C2098   1.396       .  A
C2097      F2104   1.357       .  S
C2098      C2099   1.406       .  A
C2098      H2103   1.083       .  S
C2099      C2100   1.410       .  A
C2100      F2101   1.357       .  S
C2105      C2106   1.406       .  A
C2105      C2110   1.396       .  A
C2105      H2112   1.082       .  S
C2106      C2107   1.410       .  A
C2107      C2108   1.400       .  A
C2107      F2114   1.356       .  S
C2108      C2109   1.405       .  A
C2108      H2113   1.083       .  S
C2109      C2110   1.407       .  A
C2110      F2111   1.357       .  S
C2115      C2116   1.406       .  A
C2115      C2120   1.398       .  A
C2115      H2122   1.083       .  S
C2116      C2117   1.410       .  A
C2117      C2118   1.398       .  A
C2117      F2124   1.356       .  S
C2118      C2119   1.404       .  A
C2118      H2123   1.083       .  S
C2119      C2120   1.406       .  A
C2120      F2121   1.357       .  S
C2125      C2126   1.403       .  A
C2125      C2130   1.396       .  A
C2125      H2132   1.083       .  S
C2126      C2127   1.406       .  A
C2127      C2128   1.392       .  A
C2127      F2134   1.357       .  S
C2128      C2129   1.405       .  A
C2128      H2133   1.081       .  S
C2129      C2130   1.409       .  A
C2130      F2131   1.356       .  S
C2135      C2136   1.405       .  A
C2135      C2140   1.398       .  A
C2135      H2142   1.082       .  S
C2136      C2137   1.408       .  A
C2137      C2138   1.396       .  A
C2137      F2144   1.356       .  S
C2138      C2139   1.405       .  A
C2138      H2143   1.082       .  S
C2139      C2140   1.409       .  A
C2140      F2141   1.356       .  S
C2145      C2146   1.406       .  A
C2145      C2150   1.398       .  A
C2145      H2152   1.082       .  S
C2146      C2147   1.409       .  A
C2147      C2148   1.397       .  A
C2147      F2154   1.356       .  S
C2148      C2149   1.405       .  A
C2148      H2153   1.082       .  S
C2149      C2150   1.406       .  A
C2150      F2151   1.357       .  S
C2155      C2156   1.405       .  A
C2155      C2160   1.399       .  A
C2155      H2162   1.083       .  S
C2156      C2157   1.409       .  A
C2157      C2158   1.397       .  A
C2157      F2164   1.358       .  S
C2158      C2159   1.404       .  A
C2158      H2163   1.083       .  S
C2159      C2160   1.408       .  A
C2160      F2161   1.356       .  S
C2165      C2166   1.403       .  A
C2165      C2170   1.394       .  A
C2165      H2172   1.083       .  S
C2166      C2167   1.406       .  A
C2167      C2168   1.400       .  A
C2167      F2174   1.357       .  S
C2168      C2169   1.408       .  A
C2168      H2173   1.082       .  S
C2169      C2170   1.410       .  A
C2170      F2171   1.355       .  S
C2175      C2176   1.404       .  A
C2175      C2180   1.399       .  A
C2175      H2182   1.083       .  S
C2176      C2177   1.408       .  A
C2177      C2178   1.402       .  A
C2177      F2184   1.357       .  S
C2178      C2179   1.407       .  A
C2178      H2183   1.083       .  S
C2179      C2180   1.410       .  A
C2180      F2181   1.358       .  S
C2185      C2186   1.408       .  A
C2185      C2190   1.403       .  A
C2185      H2192   1.082       .  S
C2186      C2187   1.411       .  A
C2187      C2188   1.393       .  A
C2187      F2194   1.356       .  S
C2188      C2189   1.401       .  A
C2188      H2193   1.083       .  S
C2189      C2190   1.406       .  A
C2190      F2191   1.357       .  S
C2195      C2196   1.402       .  A
C2195      C2200   1.396       .  A
C2195      H2202   1.083       .  S
C2196      C2197   1.406       .  A
C2197      C2198   1.396       .  A
C2197      F2204   1.357       .  S
C2198      C2199   1.405       .  A
C2198      H2203   1.082       .  S
C2199      C2200   1.410       .  A
C2200      F2201   1.356       .  S
C2205      C2206   1.405       .  A
C2205      C2210   1.401       .  A
C2205      H2212   1.083       .  S
C2206      C2207   1.404       .  A
C2207      C2208   1.392       .  A
C2207      F2214   1.357       .  S
C2208      C2209   1.406       .  A
C2208      H2213   1.083       .  S
C2209      C2210   1.410       .  A
C2210      F2211   1.357       .  S
C2215      C2216   1.404       .  A
C2215      C2220   1.400       .  A
C2215      H2222   1.083       .  S
C2216      C2217   1.404       .  A
C2217      C2218   1.391       .  A
C2217      F2224   1.357       .  S
C2218      C2219   1.402       .  A
C2218      H2223   1.083       .  S
C2219      C2220   1.408       .  A
C2220      F2221   1.357       .  S
C2225      C2226   1.404       .  A
C2225      C2230   1.394       .  A
C2225      H2232   1.083       .  S
C2226      C2227   1.406       .  A
C2227      C2228   1.404       .  A
C2227      F2234   1.357       .  S
C2228      C2229   1.409       .  A
C2228      H2233   1.083       .  S
C2229      C2230   1.409       .  A
C2230      F2231   1.358       .  S
C2235      C2236   1.407       .  A
C2235      C2240   1.394       .  A
C2235      H2242   1.082       .  S
C2236      C2237   1.409       .  A
C2237      C2238   1.399       .  A
C2237      F2244   1.356       .  S
C2238      C2239   1.403       .  A
C2238      H2243   1.083       .  S
C2239      C2240   1.403       .  A
C2240      F2241   1.358       .  S
