geometry optimzed in LAMMPS
_audit_creation_date              2020-11-30 
_audit_creation_method            'lammps2cif' 
_symmetry_space_group_name_H-M    'P1' 
_symmetry_Int_Tables_number       1 
_symmetry_cell_setting            triclinic 
loop_ 
_symmetry_equiv_pos_as_xyz 
  x,y,z 
_cell_length_a                    64.38250737 
_cell_length_b                    64.99267041052119 
_cell_length_c                    90.08358770319082 
_cell_angle_alpha                 89.448126847314 
_cell_angle_beta                  89.89934301336166 
_cell_angle_gamma                 121.68679459602336 
loop_ 
_atom_site_label 
_atom_site_type_symbol 
_atom_site_fract_x 
_atom_site_fract_y 
_atom_site_fract_z 
_atom_site_charge 
N1          N  0.33102071  0.26849067  0.66677730    -0.25600
N2          N  0.35428233  0.27543053  0.66538994    -0.33400
C3          C  0.35802523  0.25932918  0.67243751     0.02800
C4          C  0.33610163  0.24151158  0.67852864     0.08800
C5          C  0.31934439  0.24779141  0.67478587    -0.04300
H6          H  0.37553227  0.26084834  0.67336597     0.09500
H7          H  0.30022273  0.23831190  0.67786302     0.10700
Cu8        Cu  0.38027094  0.30708596  0.65471291     0.44200
Cu9        Cu  0.31634026  0.28754567  0.65772314     0.42000
Cu10       Cu  0.35932206  0.34319338  0.63787714     0.43900
N11         N  0.40318301  0.33951958  0.64368450    -0.33000
N12         N  0.39555033  0.35297207  0.63761199    -0.27200
C13         C  0.41421703  0.37157166  0.63016987    -0.03300
C14         C  0.43446043  0.36964833  0.63170140     0.08900
C15         C  0.42690928  0.34918569  0.64028657     0.02700
H16         H  0.41272907  0.38457810  0.62340086     0.10300
H17         H  0.43742541  0.34110281  0.64311031     0.09400
N18         N  0.32179545  0.32752983  0.63767847    -0.34400
N19         N  0.30613250  0.30764979  0.64512944    -0.26600
C20         C  0.28327713  0.30189843  0.64196450    -0.01800
C21         C  0.28464504  0.31873676  0.63188124     0.06800
C22         C  0.30935817  0.33478954  0.62946457     0.04900
H23         H  0.26686928  0.28605909  0.64621114     0.10000
H24         H  0.31779347  0.35041530  0.62212594     0.08800
N25         N  0.98684979  0.35176566  0.63494304    -0.25600
N26         N  0.96742353  0.34246393  0.64371370    -0.33400
C27         C  0.95547746  0.35399309  0.64111166     0.02800
C28         C  0.96812919  0.37133884  0.63023454     0.08800
C29         C  0.98784728  0.36945815  0.62651392    -0.04300
H30         H  0.93859510  0.34968720  0.64649270     0.09500
H31         H  0.00159151  0.37976993  0.61810448     0.10700
Cu32       Cu  0.95797056  0.31393761  0.65830560     0.44200
Cu33       Cu  0.01048566  0.33930927  0.63463183     0.42000
Cu34       Cu  0.99956045  0.29131421  0.66019527     0.43900
N35         N  0.95254371  0.28548633  0.67184537    -0.33000
N36         N  0.96758177  0.27738433  0.67258293    -0.27200
C37         C  0.95844686  0.25870774  0.68228067    -0.03300
C38         C  0.93674982  0.25498728  0.68784436     0.08900
C39         C  0.93347232  0.27217159  0.68105087     0.02700
H40         H  0.96689077  0.24849657  0.68496106     0.10300
H41         H  0.91830589  0.27473399  0.68257655     0.09400
N42         N  0.02910749  0.30787730  0.64561707    -0.34400
N43         N  0.03256735  0.32511973  0.63618388    -0.26600
C44         C  0.05245420  0.33171663  0.62787671    -0.01800
C45         C  0.06211060  0.31796712  0.63223715     0.06800
C46         C  0.04692991  0.30313115  0.64358523     0.04900
H47         H  0.05927520  0.34559195  0.61932443     0.10000
H48         H  0.04843672  0.28956662  0.64969851     0.08800
N49         N  0.21286909  0.33129615  0.60005828    -0.25600
N50         N  0.22729212  0.34049073  0.58824983    -0.33400
C51         C  0.24811970  0.34106195  0.59078879     0.02800
C52         C  0.24683719  0.33171545  0.60479153     0.08800
C53         C  0.22420857  0.32561974  0.61039957    -0.04300
H54         H  0.26335917  0.34829957  0.58309383     0.09500
H55         H  0.21688084  0.31849264  0.62134826     0.10700
Cu56       Cu  0.21961791  0.35335141  0.56926723     0.44200
Cu57       Cu  0.17933721  0.32871571  0.60210946     0.42000
Cu58       Cu  0.16292810  0.35001534  0.56949456     0.43900
N59         N  0.20838394  0.36593659  0.55179148    -0.33000
N60         N  0.18714302  0.36445974  0.55195222    -0.27200
C61         C  0.18500396  0.37471754  0.53952692    -0.03300
C62         C  0.20589704  0.38304841  0.53110064     0.08900
C63         C  0.22043478  0.37719847  0.53918950     0.02700
H64         H  0.16952555  0.37635900  0.53693864     0.10300
H65         H  0.23850986  0.38115315  0.53634254     0.09400
N66         N  0.14241895  0.33832922  0.58873719    -0.34400
N67         N  0.14803063  0.33050663  0.60077187    -0.26600
C68         C  0.13111519  0.32542750  0.61137289    -0.01800
C69         C  0.11424394  0.33042986  0.60560712     0.06800
C70         C  0.12204122  0.33856816  0.59130859     0.04900
H71         H  0.13149704  0.31922620  0.62249630     0.10000
H72         H  0.11373510  0.34467316  0.58338945     0.08800
N73         N  0.95730987  0.63823325  0.63592001    -0.25600
N74         N  0.96972408  0.64454788  0.62329538    -0.33400
C75         C  0.96673067  0.62475212  0.61668203     0.02800
C76         C  0.95166391  0.60505316  0.62558729     0.08800
C77         C  0.94588547  0.61406471  0.63769107    -0.04300
H78         H  0.97496833  0.62475910  0.60619921     0.09500
H79         H  0.93434625  0.60391357  0.64705257     0.10700
Cu80       Cu  0.99055791  0.67984051  0.61599121     0.44200
Cu81       Cu  0.95741268  0.66365018  0.64970747     0.42000
Cu82       Cu  0.99652849  0.72816577  0.63886945     0.43900
N83         N  0.01395067  0.71595210  0.61120919    -0.33000
N84         N  0.01706337  0.73390831  0.61961728    -0.27200
C85         C  0.03580337  0.75481141  0.61400478    -0.03300
C86         C  0.04468157  0.74948108  0.60148602     0.08900
C87         C  0.03027714  0.72478516  0.60005271     0.02700
H88         H  0.04286727  0.77233528  0.61896197     0.10300
H89         H  0.03238491  0.71381554  0.59194892     0.09400
N90         N  0.97316243  0.71539071  0.65729033    -0.34400
N91         N  0.95946272  0.69223422  0.66111918    -0.26600
C92         C  0.94580742  0.69000268  0.67302326    -0.01800
C93         C  0.95109285  0.71269900  0.67688215     0.06800
C94         C  0.96842102  0.72844982  0.66671562     0.04900
H95         H  0.93228320  0.67295899  0.67811431     0.10000
H96         H  0.97634550  0.74779335  0.66588608     0.08800
N97         N  0.40326101  0.07438648  0.63062199    -0.25600
N98         N  0.39527780  0.05532237  0.62205075    -0.33400
C99         C  0.41437996  0.05645766  0.61517177     0.02800
C100        C  0.43523831  0.07718390  0.61971035     0.08800
C101        C  0.42769647  0.08824087  0.62944627    -0.04300
H102        H  0.41305686  0.04361806  0.60709023     0.09500
H103        H  0.43894850  0.10538813  0.63488953     0.10700
Cu104      Cu  0.35876841  0.02992449  0.61915363     0.44200
Cu105      Cu  0.38031562  0.08117454  0.64267887     0.42000
Cu106      Cu  0.31511185  0.03834556  0.63940126     0.43900
N107        N  0.32143068  0.00808639  0.61697331    -0.33000
N108        N  0.30544549  0.01093833  0.62444019    -0.27200
C109        C  0.28278921  0.99376416  0.62040127    -0.03300
C110        C  0.28466486  0.97959644  0.60981704     0.08900
C111        C  0.30943348  0.98914547  0.60791384     0.02700
H112        H  0.26619181  0.99185594  0.62477302     0.10300
H113        H  0.31822130  0.98281410  0.60062250     0.09400
N114        N  0.33022587  0.06820550  0.65292440    -0.34400
N115        N  0.35397702  0.08385138  0.65396105    -0.26600
C116        C  0.35791597  0.10076885  0.66389382    -0.01800
C117        C  0.33560236  0.09543627  0.66929649     0.06800
C118        C  0.31837460  0.07474199  0.66220948     0.04900
H119        H  0.37572799  0.11544205  0.66719747     0.10000
H120        H  0.29880053  0.06485586  0.66389442     0.08800
N121        N  0.13734773  0.81389098  0.57169949    -0.25600
N122        N  0.14364513  0.83163453  0.58116306    -0.33400
C123        C  0.12527559  0.82513655  0.59086204     0.02800
C124        C  0.10641462  0.80221725  0.58740516     0.08800
C125        C  0.11467488  0.79558287  0.57517434    -0.04300
H126        H  0.12581582  0.83616617  0.59995246     0.09500
H127        H  0.10521284  0.77863101  0.56933563     0.10700
Cu128      Cu  0.17699587  0.86365331  0.58115224     0.44200
Cu129      Cu  0.16001893  0.81498921  0.55467640     0.42000
Cu130      Cu  0.21765674  0.87178714  0.55153456     0.43900
N131        N  0.21194375  0.89333254  0.57930995    -0.33000
N132        N  0.22696817  0.89630466  0.56836003    -0.27200
C133        C  0.24877635  0.91640853  0.57071136    -0.03300
C134        C  0.24732391  0.92662672  0.58372432     0.08900
C135        C  0.22369182  0.91153319  0.58892061     0.02700
H136        H  0.26467234  0.92278232  0.56365115     0.10300
H137        H  0.21577855  0.91307261  0.59913241     0.09400
N138        N  0.20737711  0.84312503  0.53757031    -0.34400
N139        N  0.18671287  0.82196795  0.53879576    -0.26600
C140        C  0.18710365  0.80672957  0.52889924    -0.01800
C141        C  0.20912604  0.81906250  0.52115163     0.06800
C142        C  0.22134836  0.84202943  0.52692127     0.04900
H143        H  0.17277968  0.78795783  0.52779964     0.10000
H144        H  0.23960582  0.85662433  0.52405522     0.08800
N145        N  0.60255075  0.16369612  0.54234073    -0.34900
N146        N  0.62330598  0.14314392  0.56225050    -0.55500
N147        N  0.57967380  0.12165651  0.58049971    -0.34900
N148        N  0.55993519  0.14395861  0.56137122    -0.55500
C149        C  0.62583220  0.17518094  0.53728404     0.28700
C150        C  0.59243165  0.17605857  0.53708725     0.28700
C151        C  0.59409611  0.11744431  0.58931881     0.28700
C152        C  0.56043575  0.11781980  0.58882185     0.28700
C153        C  0.64039385  0.15178612  0.55136100     0.37300
C154        C  0.62854185  0.13000943  0.57152547     0.37300
C155        C  0.55254808  0.15290585  0.55037164     0.37300
C156        C  0.54025806  0.13030660  0.57016682     0.37300
C157        C  0.63040010  0.19475154  0.52842219    -0.20200
C158        C  0.60934813  0.19532149  0.52832235    -0.20200
C159        C  0.58361855  0.11036947  0.60335037    -0.20200
C160        C  0.56239254  0.11062283  0.60304236    -0.20200
C161        C  0.65672889  0.14431949  0.55382130    -0.21200
C162        C  0.64922881  0.13054380  0.56658936    -0.21200
C163        C  0.52806472  0.14494897  0.55219297    -0.21200
C164        C  0.52025472  0.13058821  0.56471346    -0.21200
C165        C  0.64282023  0.16806587  0.54000666    -0.16600
C166        C  0.56812707  0.16994930  0.53957355    -0.16600
C167        C  0.54059014  0.11947224  0.58375440    -0.16600
C168        C  0.61591911  0.11889427  0.58489387    -0.16600
H169        H  0.64719968  0.20739774  0.52265037     0.16300
H170        H  0.60680534  0.20843391  0.52244529     0.16300
H171        H  0.59051247  0.10548206  0.61283119     0.16300
H172        H  0.54977534  0.10591716  0.61223976     0.16300
H173        H  0.67267997  0.14872579  0.54726060     0.14600
H174        H  0.65821415  0.12219903  0.57176120     0.14600
H175        H  0.51710361  0.14941799  0.54538715     0.14600
H176        H  0.50206204  0.12183831  0.56945316     0.14600
H177        H  0.59351123  0.14709287  0.54783302     0.27900
H178        H  0.58144408  0.12449213  0.56910253     0.27900
N179        N  0.52171841  0.30649261  0.51023591    -0.25600
N180        N  0.53542449  0.30244235  0.51925866    -0.33400
C181        C  0.54700706  0.32099912  0.52868742     0.02800
C182        C  0.54023088  0.33743404  0.52544358     0.08800
C183        C  0.52420165  0.32778500  0.51372701    -0.04300
H184        H  0.55944566  0.32239243  0.53724315     0.09500
H185        H  0.51514741  0.33567929  0.50809551     0.10700
Cu186      Cu  0.53777312  0.27187348  0.51852436     0.44200
Cu187      Cu  0.50095282  0.28306198  0.49333190     0.42000
Cu188      Cu  0.50243255  0.22766510  0.49081514     0.43900
N189        N  0.53664710  0.23957248  0.51652143    -0.33000
N190        N  0.52351100  0.22308772  0.50648542    -0.27200
C191        C  0.52676890  0.20433138  0.50817690    -0.03300
C192        C  0.54274172  0.20945308  0.51978356     0.08900
C193        C  0.54860029  0.23182783  0.52483895     0.02700
H194        H  0.51824589  0.18828014  0.50143180     0.10300
H195        H  0.56066739  0.24178634  0.53388622     0.09400
N196        N  0.48451085  0.23757719  0.47579193    -0.34400
N197        N  0.48390737  0.25756808  0.47668998    -0.26600
C198        C  0.47148787  0.25872687  0.46502033    -0.01800
C199        C  0.46393308  0.23858116  0.45633203     0.06800
C200        C  0.47252039  0.22555320  0.46353574     0.04900
H201        H  0.46847259  0.27336929  0.46289379     0.10000
H202        H  0.47052498  0.20870963  0.46011408     0.08800
N203        N  0.59869969  0.44345968  0.54883942    -0.34900
N204        N  0.61810776  0.48676978  0.56656442    -0.55500
N205        N  0.57447255  0.46337641  0.58513259    -0.34900
N206        N  0.55572698  0.41932413  0.56809627    -0.55500
C207        C  0.62203983  0.45612751  0.54378941     0.28700
C208        C  0.58893163  0.42024164  0.54461362     0.28700
C209        C  0.58912375  0.48300702  0.59342092     0.28700
C210        C  0.55552943  0.44756958  0.59387761     0.28700
C211        C  0.63507277  0.49558870  0.55560320     0.37300
C212        C  0.62253909  0.50584279  0.57485744     0.37300
C213        C  0.54874629  0.40214394  0.55765572     0.37300
C214        C  0.53575407  0.41285000  0.57652068     0.37300
C215        C  0.62701650  0.44085315  0.53601685    -0.20200
C216        C  0.60613275  0.41822946  0.53652551    -0.20200
C217        C  0.57913164  0.47981060  0.60753276    -0.20200
C218        C  0.55789374  0.45747172  0.60780979    -0.20200
C219        C  0.65032365  0.52042972  0.55689540    -0.21200
C220        C  0.64238353  0.52693125  0.56909838    -0.21200
C221        C  0.52426225  0.38454555  0.55953843    -0.21200
C222        C  0.51602134  0.39134834  0.57147440    -0.21200
C223        C  0.63864010  0.48123214  0.54552205    -0.16600
C224        C  0.56459488  0.40112208  0.54723385    -0.16600
C225        C  0.53560733  0.42500499  0.58940235    -0.16600
C226        C  0.61064368  0.50412447  0.58839253    -0.16600
H227        H  0.64391699  0.44551481  0.53049997     0.16300
H228        H  0.60387210  0.40214026  0.53147029     0.16300
H229        H  0.58629723  0.49233395  0.61666305     0.16300
H230        H  0.54559051  0.44945127  0.61721003     0.16300
H231        H  0.66596585  0.53250434  0.55002215     0.14600
H232        H  0.65068661  0.54501906  0.57346031     0.14600
H233        H  0.51354688  0.36830939  0.55312499     0.14600
H234        H  0.49772074  0.38136375  0.57608242     0.14600
H235        H  0.58923192  0.45069662  0.55355660     0.27900
H236        H  0.57591690  0.46188706  0.57376692     0.27900
N237        N  0.74041810  0.53003256  0.51353816    -0.25600
N238        N  0.74317515  0.51737091  0.52408459    -0.33400
C239        C  0.72258975  0.50543570  0.53223971     0.02800
C240        C  0.70613518  0.51083081  0.52656268     0.08800
C241        C  0.71787796  0.52646877  0.51473124    -0.04300
H242        H  0.71976846  0.49352246  0.54152197     0.09500
H243        H  0.71058454  0.53447974  0.50747141     0.10700
Cu244      Cu  0.77424130  0.51591656  0.52682161     0.44200
Cu245      Cu  0.76750716  0.55100151  0.49796216     0.42000
Cu246      Cu  0.82410576  0.55080520  0.50170958     0.43900
N247        N  0.80586560  0.51505520  0.52697637    -0.33000
N248        N  0.82435518  0.52790711  0.51772868    -0.27200
C249        C  0.84148888  0.52233475  0.52007476    -0.03300
C250        C  0.83316389  0.50511605  0.53127818     0.08900
C251        C  0.81066538  0.50095608  0.53546886     0.02700
H252        H  0.85840836  0.52985226  0.51387471     0.10300
H253        H  0.79843762  0.48826250  0.54382602     0.09400
N254        N  0.81825050  0.57009912  0.48560148    -0.34400
N255        N  0.79781570  0.57010757  0.48409502    -0.26600
C256        C  0.80007536  0.58392723  0.47224024    -0.01800
C257        C  0.82304693  0.59300063  0.46603476     0.06800
C258        C  0.83398968  0.58385831  0.47478459     0.04900
H259        H  0.78589683  0.58682389  0.46839240     0.10000
H260        H  0.85201640  0.58673967  0.47328729     0.08800
N261        N  0.74366667  0.22179382  0.50741816    -0.25600
N262        N  0.74591437  0.23863385  0.51654357    -0.33400
C263        C  0.72489486  0.23024878  0.52403938     0.02800
C264        C  0.70875814  0.20707482  0.51938992     0.08800
C265        C  0.72107134  0.20209360  0.50887313    -0.04300
H266        H  0.72178205  0.24016044  0.53242941     0.09500
H267        H  0.71431097  0.18543359  0.50287434     0.10700
Cu268      Cu  0.77762612  0.27182750  0.51883640     0.44200
Cu269      Cu  0.77177373  0.22711535  0.49364419     0.42000
Cu270      Cu  0.82937328  0.28561796  0.49565131     0.43900
N271        N  0.81094085  0.30384306  0.51980244    -0.33000
N272        N  0.83002856  0.30903451  0.51142571    -0.27200
C273        C  0.84856364  0.33144239  0.51465568    -0.03300
C274        C  0.84053786  0.34056895  0.52550673     0.08900
C275        C  0.81673824  0.32269848  0.52856703     0.02700
H276        H  0.86638409  0.34043436  0.50939894     0.10300
H277        H  0.80444382  0.32337090  0.53647620     0.09400
N278        N  0.82231854  0.25901289  0.48037381    -0.34400
N279        N  0.80151171  0.23791008  0.47986069    -0.26600
C280        C  0.80247165  0.22502061  0.46864019    -0.01800
C281        C  0.82499294  0.23861638  0.46168911     0.06800
C282        C  0.83709514  0.26006848  0.46940534     0.04900
H283        H  0.78760616  0.20718844  0.46575038     0.10000
H284        H  0.85524482  0.27538420  0.46715624     0.08800
N285        N  0.87342002  0.44014379  0.55366549    -0.34900
N286        N  0.89087635  0.48039531  0.57389175    -0.55500
N287        N  0.91521189  0.46151783  0.59140290    -0.34900
N288        N  0.89974750  0.42239419  0.57034408    -0.55500
C289        C  0.86722150  0.45411470  0.54599532     0.28700
C290        C  0.87103153  0.42277514  0.54442806     0.28700
C291        C  0.92450614  0.48347767  0.59764191     0.28700
C292        C  0.92909638  0.45266231  0.59584123     0.28700
C293        C  0.87535859  0.48393891  0.56580045     0.37300
C294        C  0.89702406  0.49493590  0.58577385     0.37300
C295        C  0.88703909  0.40348707  0.56116926     0.37300
C296        C  0.90947789  0.41502730  0.58086633     0.37300
C297        C  0.86054444  0.44534791  0.53170620    -0.20200
C298        C  0.86286013  0.42549681  0.53073460    -0.20200
C299        C  0.94439857  0.48853925  0.60630776    -0.20200
C300        C  0.94726562  0.46905165  0.60519727    -0.20200
C301        C  0.87172715  0.50091705  0.57253836    -0.21200
C302        C  0.88544064  0.50787277  0.58519192    -0.21200
C303        C  0.88916384  0.38421773  0.56570330    -0.21200
C304        C  0.90339202  0.39153522  0.57815930    -0.21200
C305        C  0.86589536  0.47348905  0.55187958    -0.16600
C306        C  0.87445978  0.40366541  0.54837746    -0.16600
C307        C  0.92477762  0.42956210  0.59244791    -0.16600
C308        C  0.91461026  0.49833745  0.59638285    -0.16600
H309        H  0.85425889  0.45227310  0.52296773     0.16300
H310        H  0.85878288  0.41422388  0.52108910     0.16300
H311        H  0.95550950  0.50447610  0.61289400     0.16300
H312        H  0.96103199  0.46708493  0.61075165     0.16300
H313        H  0.86062530  0.50783771  0.56865041     0.14600
H314        H  0.88701478  0.52124007  0.59293751     0.14600
H315        H  0.88139070  0.36673435  0.56054043     0.14600
H316        H  0.90870087  0.38078848  0.58446722     0.14600
H317        H  0.87624310  0.44059813  0.56501256     0.27900
H318        H  0.89869878  0.45191533  0.58590193     0.27900
N319        N  0.67957848  0.05008036  0.63749504    -0.25600
N320        N  0.69581026  0.07212576  0.64193456    -0.33400
C321        C  0.69022703  0.08776570  0.63610196     0.02800
C322        C  0.66949362  0.07479725  0.62762377     0.08800
C323        C  0.66320483  0.05099694  0.62870146    -0.04300
H324        H  0.70059733  0.10709614  0.63780564     0.09500
H325        H  0.64810562  0.03555577  0.62334725     0.10700
Cu326      Cu  0.72469695  0.07907538  0.65556641     0.44200
Cu327      Cu  0.68189763  0.02046678  0.64311284     0.42000
Cu328      Cu  0.73284167  0.02880443  0.66572383     0.43900
N329        N  0.75140970  0.08196004  0.66979556    -0.33000
N330        N  0.75440607  0.06396300  0.67364736    -0.27200
C331        C  0.77295865  0.07228265  0.68335719    -0.03300
C332        C  0.78192882  0.09655102  0.68560727     0.08900
C333        C  0.76789257  0.10208064  0.67691245     0.02700
H334        H  0.77918257  0.06139667  0.68853453     0.10300
H335        H  0.76923528  0.11935376  0.67600289     0.09400
N336        N  0.70845572  0.99671138  0.65498551    -0.34400
N337        N  0.68997831  0.99407065  0.64703239    -0.26600
C338        C  0.67878098  0.97241494  0.64053128    -0.01800
C339        C  0.69078047  0.96068178  0.64442813     0.06800
C340        C  0.70938822  0.97653892  0.65372725     0.04900
H341        H  0.66358208  0.96627987  0.63305203     0.10000
H342        H  0.72327157  0.97406956  0.65863050     0.08800
N343        N  0.77351349  0.71308539  0.65968966    -0.25600
N344        N  0.76901401  0.69080437  0.65847437    -0.33400
C345        C  0.78577236  0.68895782  0.66624779     0.02800
C346        C  0.80145711  0.71104259  0.67256696     0.08800
C347        C  0.79322386  0.72593742  0.66829515    -0.04300
H348        H  0.78600462  0.67251604  0.66758925     0.09500
H349        H  0.80051778  0.74448475  0.67152336     0.10700
Cu350      Cu  0.73967638  0.66299243  0.64723312     0.44200
Cu351      Cu  0.75251061  0.72530631  0.65026090     0.42000
Cu352      Cu  0.70220314  0.68091643  0.62900383     0.43900
N353        N  0.70847676  0.63908207  0.63557917    -0.33000
N354        N  0.69483106  0.64599877  0.62890156    -0.27200
C355        C  0.67603483  0.62693766  0.62223601    -0.03300
C356        C  0.67793527  0.60710057  0.62486801     0.08900
C357        C  0.69868058  0.61527109  0.63331071     0.02700
H358        H  0.66219132  0.62758742  0.61582238     0.10300
H359        H  0.70622139  0.60483378  0.63736017     0.09400
N360        N  0.71065321  0.71604715  0.63105427    -0.34400
N361        N  0.72890015  0.73253109  0.63905377    -0.26600
C362        C  0.72877296  0.75318126  0.63847125    -0.01800
C363        C  0.70952168  0.74942919  0.62964962     0.06800
C364        C  0.69846121  0.72563295  0.62513365     0.04900
H365        H  0.74164139  0.76964832  0.64411189     0.10000
H366        H  0.68250750  0.71569668  0.61826171     0.08800
N367        N  0.66981551  0.80895436  0.61150514    -0.25600
N368        N  0.65563685  0.79277448  0.60159243    -0.33400
C369        C  0.65873134  0.77394689  0.60220358     0.02800
C370        C  0.67575027  0.77835376  0.61292518     0.08800
C371        C  0.68248631  0.80074596  0.61867860    -0.04300
H372        H  0.64931302  0.75818609  0.59524497     0.09500
H373        H  0.69540917  0.81028557  0.62744251     0.10700
Cu374      Cu  0.63282512  0.79620112  0.58717355     0.44200
Cu375      Cu  0.67049517  0.84103008  0.61469505     0.42000
Cu376      Cu  0.63023311  0.84870363  0.58902078     0.43900
N377        N  0.61195211  0.80263733  0.57283641    -0.33000
N378        N  0.61099935  0.82239582  0.57336798    -0.27200
C379        C  0.59653886  0.82182873  0.56241265    -0.03300
C380        C  0.58797257  0.80059738  0.55466543     0.08900
C381        C  0.59817111  0.78887320  0.56158712     0.02700
H382        H  0.59276797  0.83592991  0.56014964     0.10300
H383        H  0.59623043  0.77188556  0.55858160     0.09400
N384        N  0.65061491  0.87237768  0.60570852    -0.34400
N385        N  0.66518411  0.87003220  0.61499408    -0.26600
C386        C  0.67506240  0.88888677  0.62435738    -0.01800
C387        C  0.66616181  0.90361336  0.62071298     0.06800
C388        C  0.65082127  0.89258665  0.60889237     0.04900
H389        H  0.68759884  0.89150764  0.63316013     0.10000
H390        H  0.64040932  0.89877329  0.60302100     0.08800
O391        O  0.85445669  0.72253188  0.74221306    -0.71200
O392        O  0.90802741  0.73361219  0.71376760    -0.72200
O393        O  0.86354053  0.73311099  0.71129086    -0.60800
O394        O  0.89882009  0.72306045  0.74468490    -0.69200
O395        O  0.87870442  0.68367925  0.74002485    -0.68800
O396        O  0.84377163  0.69367329  0.70684791    -0.60000
O397        O  0.88780872  0.69416751  0.70935013    -0.72600
O398        O  0.83466810  0.68319243  0.73750484    -0.71300
Cu399      Cu  0.88195523  0.72952952  0.72815705     1.04600
Cu400      Cu  0.86057107  0.68735089  0.72325822     1.04300
C401        C  0.83621059  0.70107218  0.74429061     0.95000
C402        C  0.90619187  0.71544294  0.70713630     0.94100
C403        C  0.84795091  0.71475894  0.70392402     0.86200
C404        C  0.89423847  0.70178038  0.74754520     0.92500
O405        O  0.87306480  0.19866968  0.75441917    -0.71200
O406        O  0.82907908  0.15772558  0.72147641    -0.72200
O407        O  0.82893298  0.15311248  0.75270997    -0.60800
O408        O  0.87332132  0.20366408  0.72309826    -0.69200
O409        O  0.89459564  0.18576765  0.72101989    -0.68800
O410        O  0.84998318  0.13494780  0.75083278    -0.60000
O411        O  0.85024435  0.13971294  0.71948086    -0.72600
O412        O  0.89433890  0.18076493  0.75244197    -0.71300
Cu413      Cu  0.85038352  0.17894055  0.73798752     1.04600
Cu414      Cu  0.87307707  0.15968944  0.73584939     1.04300
C415        C  0.89053112  0.19611296  0.75859987     0.95000
C416        C  0.83254464  0.14202353  0.71549336     0.94100
C417        C  0.83236140  0.13611804  0.75636206     0.86200
C418        C  0.89098328  0.20270960  0.71746680     0.92500
O419        O  0.34278656  0.18433623  0.74344555    -0.71200
O420        O  0.34725073  0.14730736  0.70958962    -0.72200
O421        O  0.34739457  0.19069570  0.71216882    -0.60800
O422        O  0.34280418  0.14066365  0.74085359    -0.69200
O423        O  0.30239135  0.11983602  0.73898069    -0.68800
O424        O  0.30697785  0.17007764  0.71022608    -0.60000
O425        O  0.30680325  0.12658527  0.70766055    -0.72600
O426        O  0.30235286  0.16359582  0.74156121    -0.71300
Cu427      Cu  0.34647874  0.16646564  0.72660807     1.04600
Cu428      Cu  0.30319913  0.14427676  0.72456232     1.04300
C429        C  0.32190056  0.17995912  0.74769322     0.95000
C430        C  0.32771713  0.13128332  0.70328194     0.94100
C431        C  0.32794350  0.18817272  0.70666584     0.86200
C432        C  0.32194786  0.12233577  0.74433051     0.92500
N433        N  0.31821116  0.24728291  0.79521923    -0.25600
N434        N  0.34207821  0.25752586  0.79338444    -0.33400
C435        C  0.34641791  0.24460123  0.78371785     0.02800
C436        C  0.32433427  0.22533810  0.77927137     0.08800
C437        C  0.30673948  0.22745152  0.78668561    -0.04300
H438        H  0.36438218  0.24900316  0.78017030     0.09500
H439        H  0.28714086  0.21561057  0.78589657     0.10700
Cu440      Cu  0.36848680  0.28830813  0.80395586     0.44200
Cu441      Cu  0.30249002  0.26093009  0.80918624     0.42000
Cu442      Cu  0.34698960  0.31410865  0.82960147     0.43900
N443        N  0.39177910  0.31754206  0.81686927    -0.33000
N444        N  0.38369550  0.32707042  0.82643921    -0.27200
C445        C  0.40265427  0.34438152  0.83408927    -0.03300
C446        C  0.42358685  0.34575292  0.82903925     0.08900
C447        C  0.41615017  0.32848833  0.81816723     0.02700
H448        H  0.40112799  0.35433652  0.84314722     0.10300
H449        H  0.42735332  0.32341035  0.81219351     0.09400
N450        N  0.30959539  0.29851373  0.83141491    -0.34400
N451        N  0.29320003  0.27938718  0.82397419    -0.26600
C452        C  0.27078223  0.27482262  0.82749506    -0.01800
C453        C  0.27324161  0.29178743  0.83768347     0.06800
C454        C  0.29815368  0.30650904  0.83987740     0.04900
H455        H  0.25394233  0.26035321  0.82288369     0.10000
H456        H  0.30750723  0.32228538  0.84681035     0.08800
N457        N  0.96926342  0.34230765  0.83888008    -0.25600
N458        N  0.94945101  0.32881179  0.83094604    -0.33400
C459        C  0.93453144  0.33739648  0.83220268     0.02800
C460        C  0.94563760  0.35723140  0.84133118     0.08800
C461        C  0.96753452  0.35986402  0.84541918    -0.04300
H462        H  0.91678391  0.32949309  0.82709676     0.09500
H463        H  0.98096385  0.37317850  0.85284307     0.10700
Cu464      Cu  0.94375869  0.29914556  0.81915837     0.44200
Cu465      Cu  0.99708762  0.33541380  0.84085681     0.42000
Cu466      Cu  0.99173579  0.28526304  0.81976831     0.43900
N467        N  0.94264717  0.27153639  0.80724216    -0.33000
N468        N  0.96008720  0.26651367  0.80716818    -0.27200
C469        C  0.95388913  0.24832204  0.79763935    -0.03300
C470        C  0.93154347  0.24173858  0.79156992     0.08900
C471        C  0.92496420  0.25674870  0.79785601     0.02700
H472        H  0.96502153  0.24082686  0.79512523     0.10300
H473        H  0.90880343  0.25733591  0.79551265     0.09400
N474        N  0.02054946  0.30663911  0.83399911    -0.34400
N475        N  0.02223551  0.32473206  0.84164012    -0.26600
C476        C  0.04236662  0.33445970  0.85004458    -0.01800
C477        C  0.05401002  0.32199737  0.84763363     0.06800
C478        C  0.03969797  0.30444709  0.83736094     0.04900
H479        H  0.04801957  0.34944012  0.85748657     0.10000
H480        H  0.04271646  0.29090311  0.83278055     0.08800
N481        N  0.20725610  0.31739734  0.86548771    -0.25600
N482        N  0.22386039  0.33060060  0.87549647    -0.33400
C483        C  0.24357489  0.32895894  0.87349486     0.02800
C484        C  0.23940774  0.31401955  0.86166024     0.08800
C485        C  0.21611749  0.30688903  0.85679033    -0.04300
H486        H  0.26013269  0.33864257  0.87991227     0.09500
H487        H  0.20669930  0.29571516  0.84734747     0.10700
Cu488      Cu  0.22061315  0.35218772  0.89074223     0.44200
Cu489      Cu  0.17448399  0.31661537  0.86390248     0.42000
Cu490      Cu  0.16926314  0.35838846  0.88951217     0.43900
N491        N  0.21656212  0.37475313  0.90472105    -0.33000
N492        N  0.19757495  0.37736573  0.90439586    -0.27200
C493        C  0.20035686  0.39323312  0.91490677    -0.03300
C494        C  0.22225420  0.40087196  0.92212299     0.08900
C495        C  0.23195152  0.38878771  0.91534358     0.02700
H496        H  0.18736389  0.39860720  0.91712939     0.10300
H497        H  0.24892528  0.38997116  0.91800985     0.09400
N498        N  0.14358996  0.33698375  0.87370361    -0.34400
N499        N  0.14514305  0.32187643  0.86466534    -0.26600
C500        C  0.12538119  0.31152992  0.85585610    -0.01800
C501        C  0.11083682  0.32063616  0.85942433     0.06800
C502        C  0.12294241  0.33666330  0.87083170     0.04900
H503        H  0.12209383  0.29868432  0.84724736     0.10000
H504        H  0.11742030  0.34755880  0.87660103     0.08800
N505        N  0.58474495  0.15073257  0.91157796    -0.34900
N506        N  0.54136385  0.13005636  0.89268709    -0.55500
N507        N  0.56303902  0.11107992  0.87322843    -0.34900
N508        N  0.60507705  0.12924438  0.89308151    -0.55500
C509        C  0.57005217  0.15490844  0.92011053     0.28700
C510        C  0.60450188  0.15589428  0.91977648     0.28700
C511        C  0.54056136  0.10087153  0.86718940     0.28700
C512        C  0.57353653  0.09930844  0.86784155     0.28700
C513        C  0.53583401  0.14254460  0.90212360     0.37300
C514        C  0.52524045  0.12299268  0.88143106     0.37300
C515        C  0.62461877  0.14248104  0.90188134     0.37300
C516        C  0.61254402  0.12047810  0.88212885     0.37300
C517        C  0.58083908  0.16324973  0.93384679    -0.20200
C518        C  0.60258497  0.16395677  0.93361097    -0.20200
C519        C  0.53685619  0.08261747  0.85766834    -0.20200
C520        C  0.55763650  0.08158444  0.85810677    -0.20200
C521        C  0.51579825  0.14303864  0.89695203    -0.21200
C522        C  0.50915330  0.13073640  0.88383063    -0.21200
C523        C  0.64445888  0.14171255  0.89664204    -0.21200
C524        C  0.63680728  0.12774757  0.88416832    -0.21200
C525        C  0.54795626  0.15282048  0.91559545    -0.16600
C526        C  0.62460415  0.15437787  0.91494122    -0.16600
C527        C  0.59761351  0.10515201  0.87067322    -0.16600
C528        C  0.52373400  0.10823355  0.86957194    -0.16600
H529        H  0.57390900  0.16855593  0.94305269     0.16300
H530        H  0.61551924  0.16977774  0.94261284     0.16300
H531        H  0.52087144  0.07125524  0.85105439     0.16300
H532        H  0.56076906  0.06932683  0.85183502     0.16300
H533        H  0.50684462  0.15136553  0.90209553     0.14600
H534        H  0.49400308  0.12758756  0.87695666     0.14600
H535        H  0.66253949  0.15019537  0.90135645     0.14600
H536        H  0.64786876  0.12341063  0.87739678     0.14600
H537        H  0.58263569  0.14704076  0.90036994     0.27900
H538        H  0.57176985  0.12690441  0.87923448     0.27900
N539        N  0.72093208  0.20353078  0.95244273    -0.25600
N540        N  0.72526876  0.22152382  0.94336964    -0.33400
C541        C  0.70633346  0.21413648  0.93413523     0.02800
C542        C  0.68916786  0.19038296  0.93751848     0.08800
C543        C  0.69888862  0.18407420  0.94914830    -0.04300
H544        H  0.70499319  0.22543538  0.92576751     0.09500
H545        H  0.69041829  0.16684648  0.95494963     0.10700
Cu546      Cu  0.75588327  0.25590178  0.94421477     0.44200
Cu547      Cu  0.74521481  0.20744401  0.96927799     0.42000
Cu548      Cu  0.79960394  0.26858432  0.97263348     0.43900
N549        N  0.78703873  0.28950205  0.94685748    -0.33000
N550        N  0.80331423  0.29435937  0.95731729    -0.27200
C551        C  0.82177666  0.31751575  0.95576221    -0.03300
C552        C  0.81664826  0.32747890  0.94377746     0.08900
C553        C  0.79459044  0.30934563  0.93837641     0.02700
H554        H  0.83787448  0.32622055  0.96263552     0.10300
H555        H  0.78496861  0.31030217  0.92881370     0.09400
N556        N  0.79202981  0.23958432  0.98635898    -0.34400
N557        N  0.77255953  0.21751506  0.98523917    -0.26600
C558        C  0.77376721  0.20332320  0.99578365    -0.01800
C559        C  0.79494815  0.21704031  0.00386850     0.06800
C560        C  0.80603372  0.23997094  0.99756123     0.04900
H561        H  0.76029800  0.18430537  0.99738255     0.10000
H562        H  0.82312171  0.25582125  0.00072900     0.08800
N563        N  0.67115796  0.04077290  0.82786745    -0.25600
N564        N  0.68439576  0.06122610  0.82031123    -0.33400
C565        C  0.67487935  0.07514174  0.82231680     0.02800
C566        C  0.65472884  0.06264909  0.83151217     0.08800
C567        C  0.65288429  0.04104030  0.83487936    -0.04300
H568        H  0.68260668  0.09328625  0.81789395     0.09500
H569        H  0.63986181  0.02696410  0.84233140     0.10700
Cu570      Cu  0.71571292  0.06956644  0.80868673     0.44200
Cu571      Cu  0.67958871  0.01431465  0.82929836     0.42000
Cu572      Cu  0.73337338  0.02458188  0.80969383     0.43900
N573        N  0.74648163  0.07380227  0.79829159    -0.33000
N574        N  0.75293984  0.05753643  0.79856208    -0.27200
C575        C  0.77354096  0.06594363  0.79049642    -0.03300
C576        C  0.78020639  0.08849531  0.78499142     0.08900
C577        C  0.76276641  0.09295538  0.79008002     0.02700
H578        H  0.78273874  0.05623280  0.78865885     0.10300
H579        H  0.76176115  0.10879374  0.78782928     0.09400
N580        N  0.71094246  0.99388088  0.82238834    -0.34400
N581        N  0.69147197  0.99041000  0.82964357    -0.26600
C582        C  0.68144870  0.96949550  0.83732052    -0.01800
C583        C  0.69516751  0.95921782  0.83475064     0.06800
C584        C  0.71377174  0.97513440  0.82521344     0.04900
H585        H  0.66551066  0.96245812  0.84442706     0.10000
H586        H  0.72859953  0.97361530  0.82091685     0.08800
N587        N  0.75789104  0.68717151  0.79075804    -0.25600
N588        N  0.75262301  0.66453736  0.79062811    -0.33400
C589        C  0.76688036  0.66270632  0.78044663     0.02800
C590        C  0.78167962  0.68517165  0.77392553     0.08800
C591        C  0.77559321  0.70026958  0.78067209    -0.04300
H592        H  0.76687181  0.64636710  0.77823614     0.09500
H593        H  0.78388122  0.71948911  0.77873417     0.10700
Cu594      Cu  0.72725571  0.63708412  0.80467893     0.44200
Cu595      Cu  0.74270326  0.70028451  0.80537514     0.42000
Cu596      Cu  0.70145322  0.65673357  0.83227687     0.43900
N597        N  0.70094776  0.61364354  0.82000442    -0.33000
N598        N  0.69151605  0.62116775  0.83006716    -0.27200
C599        C  0.67483215  0.60219865  0.83823236    -0.03300
C600        C  0.67371181  0.58177230  0.83306770     0.08900
C601        C  0.69046851  0.58951433  0.82153406     0.02700
H602        H  0.66429673  0.60324921  0.84724037     0.10300
H603        H  0.69467000  0.57850278  0.81474566     0.09400
N604        N  0.71300559  0.69290211  0.83280422    -0.34400
N605        N  0.72771736  0.70903656  0.82279369    -0.26600
C606        C  0.73132609  0.73077317  0.82631521    -0.01800
C607        C  0.71825603  0.72799361  0.83921609     0.06800
C608        C  0.70695989  0.70382562  0.84298896     0.04900
H609        H  0.74272256  0.74725973  0.82001287     0.10000
H610        H  0.69499227  0.69474983  0.85239965     0.08800
N611        N  0.71189715  0.81471336  0.85424463    -0.25600
N612        N  0.70324204  0.79987998  0.86586287    -0.33400
C613        C  0.70686767  0.78156840  0.86377291     0.02800
C614        C  0.71824772  0.78492790  0.85012289     0.08800
C615        C  0.72127682  0.80617923  0.84445143    -0.04300
H616        H  0.70072360  0.76651703  0.87143016     0.09500
H617        H  0.72873730  0.81426955  0.83368773     0.10700
Cu618      Cu  0.68420805  0.80295879  0.88336289     0.44200
Cu619      Cu  0.70862249  0.84460707  0.85142479     0.42000
Cu620      Cu  0.67170676  0.85034583  0.87899011     0.43900
N621        N  0.66300188  0.80844594  0.89814813    -0.33000
N622        N  0.65848765  0.82592476  0.89638706    -0.27200
C623        C  0.64386829  0.82470958  0.90742178    -0.03300
C624        C  0.63887232  0.80544206  0.91661033     0.08900
C625        C  0.65122159  0.79547847  0.91038844     0.02700
H626        H  0.63710906  0.83675178  0.90841299     0.10300
H627        H  0.65140270  0.77980909  0.91436013     0.09400
N628        N  0.68740979  0.87381897  0.86125080    -0.34400
N629        N  0.70129943  0.87210594  0.85114736    -0.26600
C630        C  0.70909940  0.89053077  0.84135379    -0.01800
C631        C  0.69950183  0.90433309  0.84549271     0.06800
C632        C  0.68586869  0.89321154  0.85819063     0.04900
H633        H  0.72086983  0.89364224  0.83192239     0.10000
H634        H  0.67583723  0.89885125  0.86490797     0.08800
N635        N  0.86113264  0.43291733  0.91943803    -0.34900
N636        N  0.87952547  0.41082916  0.89970397    -0.55500
N637        N  0.89912465  0.45239759  0.87982713    -0.34900
N638        N  0.87944621  0.47382867  0.89900990    -0.55500
C639        C  0.84910501  0.40997032  0.92482289     0.28700
C640        C  0.84936706  0.44361269  0.92457986     0.28700
C641        C  0.90188801  0.43697492  0.87129384     0.28700
C642        C  0.90159017  0.47035827  0.87084470     0.28700
C643        C  0.87207100  0.39492647  0.91118239     0.37300
C644        C  0.89264331  0.40547729  0.89056192     0.37300
C645        C  0.87229119  0.48229691  0.91029656     0.37300
C646        C  0.89227336  0.49255940  0.88946760     0.37300
C647        C  0.82978333  0.40620494  0.93373521    -0.20200
C648        C  0.82996029  0.42744418  0.93359231    -0.20200
C649        C  0.90646473  0.44538068  0.85671950    -0.20200
C650        C  0.90626211  0.46645982  0.85643393    -0.20200
C651        C  0.88043984  0.37933556  0.90933004    -0.21200
C652        C  0.89354065  0.38606035  0.89627817    -0.21200
C653        C  0.88054665  0.50652285  0.90791489    -0.21200
C654        C  0.89324007  0.51304394  0.89471814    -0.21200
C655        C  0.85568347  0.39268385  0.92239526    -0.16600
C656        C  0.85620282  0.46780326  0.92179720    -0.16600
C657        C  0.90120527  0.49085093  0.87550319    -0.16600
C658        C  0.90176474  0.41633649  0.87649767    -0.16600
H659        H  0.81687923  0.38985378  0.93973496     0.16300
H660        H  0.81720045  0.43058484  0.93944834     0.16300
H661        H  0.90980168  0.43727945  0.84729095     0.16300
H662        H  0.90943098  0.47774793  0.84674410     0.16300
H663        H  0.87697385  0.36432990  0.91645495     0.14600
H664        H  0.90215806  0.37723044  0.89136664     0.14600
H665        H  0.87724481  0.51811263  0.91477943     0.14600
H666        H  0.90169208  0.53068990  0.88942802     0.14600
H667        H  0.87775448  0.44149129  0.91380182     0.27900
H668        H  0.89845375  0.45217785  0.89134567     0.27900
N669        N  0.71689651  0.50788093  0.95463754    -0.25600
N670        N  0.72025529  0.49287441  0.94665004    -0.33400
C671        C  0.70037790  0.47923893  0.93837810     0.02800
C672        C  0.68380042  0.48598457  0.94133630     0.08800
C673        C  0.69470667  0.50417779  0.95164177    -0.04300
H674        H  0.69834023  0.46568498  0.93063147     0.09500
H675        H  0.68725210  0.51413594  0.95648617     0.10700
Cu676      Cu  0.75181630  0.49189317  0.94675285     0.44200
Cu677      Cu  0.74274661  0.53257478  0.96915372     0.42000
Cu678      Cu  0.79971464  0.53305022  0.97071444     0.43900
N679        N  0.78546733  0.49511620  0.94762308    -0.33000
N680        N  0.80331704  0.51045332  0.95635066    -0.27200
C681        C  0.82303987  0.50881616  0.95395474    -0.03300
C682        C  0.81710583  0.49160585  0.94323163     0.08900
C683        C  0.79326506  0.48327187  0.93943518     0.02700
H684        H  0.84040151  0.51956412  0.95944926     0.10300
H685        H  0.78249870  0.46991467  0.93116743     0.09400
N686        N  0.79134060  0.55319958  0.98433547    -0.34400
N687        N  0.77089272  0.55333592  0.98371307    -0.26600
C688        C  0.77118425  0.56780400  0.99439653    -0.01800
C689        C  0.79273215  0.57705174  0.00215447     0.06800
C690        C  0.80511082  0.56745586  0.99543714     0.04900
H691        H  0.75649645  0.57086186  0.99660062     0.10000
H692        H  0.82266264  0.57025342  0.99842994     0.08800
N693        N  0.58037671  0.42027857  0.91418908    -0.34900
N694        N  0.60515971  0.46213222  0.89439316    -0.55500
N695        N  0.56461741  0.43925544  0.87391281    -0.34900
N696        N  0.54055280  0.39657546  0.89313481    -0.55500
C697        C  0.60281190  0.43239487  0.92035340     0.28700
C698        C  0.56900878  0.39721780  0.91936185     0.28700
C699        C  0.58135483  0.45779411  0.86527533     0.28700
C700        C  0.54636432  0.42360385  0.86497015     0.28700
C701        C  0.62003746  0.47118001  0.90622610     0.37300
C702        C  0.61228631  0.48074918  0.88475090     0.37300
C703        C  0.53122208  0.37984870  0.90420560     0.37300
C704        C  0.52223232  0.39048719  0.88346307     0.37300
C705        C  0.60554120  0.41701097  0.92980368    -0.20200
C706        C  0.58424328  0.39481791  0.92916218    -0.20200
C707        C  0.57345881  0.45402595  0.85068237    -0.20200
C708        C  0.55133328  0.43249351  0.85049747    -0.20200
C709        C  0.63670805  0.49568708  0.90410868    -0.21200
C710        C  0.63182040  0.50174709  0.89048845    -0.21200
C711        C  0.50688268  0.36290544  0.90150899    -0.21200
C712        C  0.50114555  0.36970165  0.88840194    -0.21200
C713        C  0.62058335  0.45711938  0.91805318    -0.16600
C714        C  0.54492382  0.37856429  0.91600631    -0.16600
C715        C  0.52485614  0.40213534  0.86963790    -0.16600
C716        C  0.60283359  0.47860539  0.87034480    -0.16600
H717        H  0.62127216  0.42129116  0.93645561     0.16300
H718        H  0.58042781  0.37875277  0.93526157     0.16300
H719        H  0.58256050  0.46569544  0.84117108     0.16300
H720        H  0.54016359  0.42433579  0.84080238     0.16300
H721        H  0.65130774  0.50778516  0.91142324     0.14600
H722        H  0.64184374  0.51947358  0.88527913     0.14600
H723        H  0.49465783  0.34709914  0.90816768     0.14600
H724        H  0.48362638  0.36008054  0.88294793     0.14600
H725        H  0.57246687  0.42791252  0.90799282     0.27900
H726        H  0.56429206  0.43857058  0.88542810     0.27900
N727        N  0.50599352  0.28539663  0.95553613    -0.25600
N728        N  0.51568705  0.28000887  0.94441121    -0.33400
C729        C  0.52482816  0.29800363  0.93425727     0.02800
C730        C  0.52060692  0.31549013  0.93918339     0.08800
C731        C  0.50871839  0.30709619  0.95270315    -0.04300
H732        H  0.53375099  0.29822444  0.92401294     0.09500
H733        H  0.50244237  0.31599508  0.95990444     0.10700
Cu734      Cu  0.51579839  0.24838147  0.94315209     0.44200
Cu735      Cu  0.48940698  0.26255958  0.97388497     0.42000
Cu736      Cu  0.48797153  0.20539277  0.97289966     0.43900
N737        N  0.51441072  0.21595103  0.94383075    -0.33000
N738        N  0.50414758  0.19991358  0.95476008    -0.27200
C739        C  0.50725460  0.18132095  0.95218025    -0.03300
C740        C  0.52007479  0.18613578  0.93900856     0.08900
C741        C  0.52430824  0.20809652  0.93399262     0.02700
H742        H  0.50116000  0.16585419  0.95949666     0.10300
H743        H  0.53432930  0.21793928  0.92411363     0.09400
N744        N  0.47434279  0.21570655  0.99019541    -0.34400
N745        N  0.47466384  0.23621589  0.99068356    -0.26600
C746        C  0.46402384  0.23668999  0.00346785    -0.01800
C747        C  0.45673302  0.21544773  0.01133961     0.06800
C748        C  0.46361704  0.20269961  0.00258686     0.04900
H749        H  0.46162049  0.25131454  0.00665448     0.10000
H750        H  0.46077544  0.18504454  0.00497079     0.08800
N751        N  0.94715174  0.62513549  0.82494173    -0.25600
N752        N  0.96299146  0.63411102  0.83592271    -0.33400
C753        C  0.96090099  0.61582600  0.84424166     0.02800
C754        C  0.94292686  0.59442213  0.83816140     0.08800
C755        C  0.93449103  0.60083924  0.82598150    -0.04300
H756        H  0.97137587  0.61800696  0.85412016     0.09500
H757        H  0.91994069  0.58883968  0.81861589     0.10700
Cu758      Cu  0.98625991  0.67074561  0.83931925     0.44200
Cu759      Cu  0.94292256  0.64660531  0.80961136     0.42000
Cu760      Cu  0.98447766  0.71200434  0.81320532     0.43900
N761        N  0.00944404  0.70786977  0.84008437    -0.33000
N762        N  0.00935239  0.72312644  0.83032913    -0.27200
C763        C  0.02767362  0.74568875  0.83344519    -0.03300
C764        C  0.03973232  0.74452414  0.84581375     0.08900
C765        C  0.02765075  0.72023275  0.84971566     0.02700
H766        H  0.03210660  0.76168825  0.82705048     0.10300
H767        H  0.03216884  0.71189397  0.85854414     0.09400
N768        N  0.95649899  0.69593570  0.79795910    -0.34400
N769        N  0.94143631  0.67230320  0.79663834    -0.26600
C770        C  0.92510029  0.66814992  0.78599192    -0.01800
C771        C  0.93023713  0.69020315  0.78045142     0.06800
C772        C  0.95015837  0.70742934  0.78820235     0.04900
H773        H  0.91049857  0.65042697  0.78265636     0.10000
H774        H  0.95926501  0.72686453  0.78696481     0.08800
N775        N  0.38869030  0.05897283  0.81858491    -0.25600
N776        N  0.37970312  0.04380448  0.83001285    -0.33400
C777        C  0.39815064  0.04688722  0.83860541     0.02800
C778        C  0.41970955  0.06483044  0.83222372     0.08800
C779        C  0.41318797  0.07220846  0.81957876    -0.04300
H780        H  0.39597697  0.03695901  0.84878981     0.09500
H781        H  0.42523561  0.08633364  0.81181980     0.10700
Cu782      Cu  0.34279852  0.01956291  0.83308565     0.44200
Cu783      Cu  0.36659521  0.06109731  0.80273835     0.42000
Cu784      Cu  0.30075310  0.01747681  0.80516551     0.43900
N785        N  0.30592773  0.99383582  0.83285426    -0.33000
N786        N  0.29048096  0.99232413  0.82262897    -0.27200
C787        C  0.26830502  0.97266820  0.82566486    -0.03300
C788        C  0.26996216  0.96144296  0.83840005     0.08900
C789        C  0.29414025  0.97544336  0.84260883     0.02700
H790        H  0.25215692  0.96692841  0.81908415     0.10300
H791        H  0.30283647  0.97246544  0.85193141     0.09400
N792        N  0.31718886  0.04661643  0.79006103    -0.34400
N793        N  0.34106630  0.06212859  0.78929433    -0.26600
C794        C  0.34586880  0.07946902  0.77919416    -0.01800
C795        C  0.32408718  0.07475463  0.77329647     0.06800
C796        C  0.30620227  0.05383215  0.78038106     0.04900
H797        H  0.36388574  0.09482503  0.77669193     0.10000
H798        H  0.28667027  0.04493457  0.77894478     0.08800
N799        N  0.12526409  0.79818150  0.88707383    -0.25600
N800        N  0.13079663  0.81265420  0.87537808    -0.33400
C801        C  0.11184502  0.80268359  0.86594565     0.02800
C802        C  0.09362508  0.78089750  0.87206101     0.08800
C803        C  0.10277378  0.77869975  0.88541182    -0.04300
H804        H  0.11183304  0.81029434  0.85521880     0.09500
H805        H  0.09411034  0.76352028  0.89309605     0.10700
Cu806      Cu  0.16459715  0.84422813  0.87226974     0.44200
Cu807      Cu  0.14905789  0.80341188  0.90404172     0.42000
Cu808      Cu  0.20986943  0.85463642  0.90007556     0.43900
N809        N  0.20007887  0.87402749  0.87200231    -0.33000
N810        N  0.21640977  0.87777501  0.88221248    -0.27200
C811        C  0.23753253  0.89830519  0.87885011    -0.03300
C812        C  0.23445694  0.90798699  0.86591559     0.08900
C813        C  0.21044014  0.89211723  0.86185620     0.02700
H814        H  0.25405107  0.90555627  0.88529310     0.10300
H815        H  0.20116160  0.89342484  0.85223265     0.09400
N816        N  0.19972988  0.82805209  0.91629330    -0.34400
N817        N  0.17724049  0.80926957  0.91781820    -0.26600
C818        C  0.17681408  0.79444436  0.92849287    -0.01800
C819        C  0.20017600  0.80432266  0.93394232     0.06800
C820        C  0.21426032  0.82571651  0.92597548     0.04900
H821        H  0.16084630  0.77727960  0.93166196     0.10000
H822        H  0.23373575  0.83827015  0.92670997     0.08800
N823        N  0.08673858  0.38436423  0.31772256    -0.25600
N824        N  0.06523679  0.37570111  0.32418307    -0.33400
C825        C  0.06442559  0.39379258  0.33062869     0.02800
C826        C  0.08645836  0.41486836  0.32805639     0.08800
C827        C  0.10033141  0.40839541  0.31990822    -0.04300
H828        H  0.04937747  0.39152274  0.33733090     0.09500
H829        H  0.11917680  0.41999309  0.31644976     0.10700
Cu830      Cu  0.03911459  0.33946663  0.32538857     0.44200
Cu831      Cu  0.09627004  0.36191072  0.30758761     0.42000
Cu832      Cu  0.05068556  0.29597071  0.30936399     0.43900
N833        N  0.01505201  0.30274452  0.32680575    -0.33000
N834        N  0.01880680  0.28640965  0.32094674    -0.27200
C835        C  0.99958348  0.26423061  0.32430438    -0.03300
C836        C  0.98317676  0.26691234  0.33276712     0.08900
C837        C  0.99361917  0.29161734  0.33406566     0.02700
H838        H  0.99794647  0.24742418  0.32114339     0.10300
H839        H  0.98645948  0.30103706  0.33993566     0.09400
N840        N  0.08462542  0.31179787  0.29889934    -0.34400
N841        N  0.10083611  0.33536668  0.29838107    -0.26600
C842        C  0.12037684  0.33941680  0.29047163    -0.01800
C843        C  0.11631107  0.31747367  0.28584465     0.06800
C844        C  0.09352262  0.30029986  0.29128348     0.04900
H845        H  0.13611148  0.35712138  0.28796375     0.10000
H846        H  0.08386488  0.28098355  0.28956268     0.08800
N847        N  0.64225843  0.93892382  0.32630728    -0.25600
N848        N  0.65105415  0.95723706  0.33559552    -0.33400
C849        C  0.63265423  0.95567765  0.34361252     0.02800
C850        C  0.61124839  0.93545478  0.33917632     0.08800
C851        C  0.61784514  0.92512900  0.32822227    -0.04300
H852        H  0.63481853  0.96810021  0.35225027     0.09500
H853        H  0.60592533  0.90862587  0.32231191     0.10700
Cu854      Cu  0.68764288  0.98325095  0.33749140     0.44200
Cu855      Cu  0.66454053  0.93364336  0.31195723     0.42000
Cu856      Cu  0.72955041  0.98132811  0.31221844     0.43900
N857        N  0.72467489  0.00834952  0.33735777    -0.33000
N858        N  0.74018033  0.00813646  0.32784035    -0.27200
C859        C  0.76268641  0.02722918  0.33041808    -0.03300
C860        C  0.76122796  0.03992750  0.34219185     0.08900
C861        C  0.73680607  0.02742878  0.34630035     0.02700
H862        H  0.77889771  0.03153889  0.32418773     0.10300
H863        H  0.72824393  0.03195987  0.35493395     0.09400
N864        N  0.71486226  0.95078921  0.29919765    -0.34400
N865        N  0.69150376  0.93337156  0.29914845    -0.26600
C866        C  0.68859879  0.91601925  0.28978589    -0.01800
C867        C  0.71114841  0.92294710  0.28375923     0.06800
C868        C  0.72735780  0.94500729  0.28990935     0.04900
H869        H  0.67137908  0.89957717  0.28758110     0.10000
H870        H  0.74682789  0.95600862  0.28789023     0.08800
N871        N  0.89724624  0.21645316  0.37487579    -0.25600
N872        N  0.89317425  0.19967816  0.36511037    -0.33400
C873        C  0.91079963  0.20956517  0.35460367     0.02800
C874        C  0.92652474  0.23369591  0.35797431     0.08800
C875        C  0.91731572  0.23740038  0.37080674    -0.04300
H876        H  0.91182237  0.19995876  0.34516773     0.09500
H877        H  0.92474729  0.25412947  0.37682735     0.10700
Cu878      Cu  0.86330168  0.16449443  0.36620750     0.44200
Cu879      Cu  0.87588815  0.21114551  0.39335802     0.42000
Cu880      Cu  0.82149074  0.15318775  0.39667039     0.43900
N881        N  0.83051559  0.13198533  0.36956237    -0.33000
N882        N  0.81540025  0.12811833  0.38067945    -0.27200
C883        C  0.79525963  0.10607329  0.37935781    -0.03300
C884        C  0.79769654  0.09549551  0.36681565     0.08900
C885        C  0.82031640  0.11239379  0.36083925     0.02700
H886        H  0.77961990  0.09859483  0.38675114     0.10300
H887        H  0.82845323  0.11100944  0.35068054     0.09400
N888        N  0.83044525  0.18083959  0.41129406    -0.34400
N889        N  0.85073362  0.20228941  0.41023112    -0.26600
C890        C  0.85109556  0.21638223  0.42119282    -0.01800
C891        C  0.82986469  0.20301638  0.42950012     0.06800
C892        C  0.81725630  0.18063551  0.42290846     0.04900
H893        H  0.86554588  0.23498000  0.42278240     0.10000
H894        H  0.79964989  0.16536146  0.42622976     0.08800
N895        N  0.30378748  0.32302441  0.29335630    -0.25600
N896        N  0.31293042  0.34636057  0.29077460    -0.33400
C897        C  0.29746554  0.34902401  0.28215036     0.02800
C898        C  0.27767701  0.32640972  0.27917587     0.08800
C899        C  0.28215705  0.31026059  0.28639066    -0.04300
H900        H  0.30026437  0.36623764  0.27854030     0.09500
H901        H  0.27046342  0.29076150  0.28674157     0.10700
Cu902      Cu  0.34495520  0.37440448  0.29970757     0.44200
Cu903      Cu  0.32055919  0.30965966  0.30684600     0.42000
Cu904      Cu  0.37401649  0.35730843  0.32584643     0.43900
N905        N  0.37457763  0.39954751  0.31200073    -0.33000
N906        N  0.38529748  0.39298729  0.32181418    -0.27200
C907        C  0.40202370  0.41253867  0.32926475    -0.03300
C908        C  0.40181294  0.43234055  0.32383017     0.08900
C909        C  0.38417800  0.42355316  0.31294313     0.02700
H910        H  0.41242905  0.41209109  0.33854830     0.10300
H911        H  0.37774063  0.43352967  0.30684092     0.09400
N912        N  0.36004756  0.32086623  0.32905888    -0.34400
N913        N  0.34105708  0.30325878  0.32204901    -0.26600
C914        C  0.33761955  0.28190827  0.32676689    -0.01800
C915        C  0.35525513  0.28655021  0.33729089     0.06800
C916        C  0.36898117  0.31133672  0.33845914     0.04900
H917        H  0.32324269  0.26442702  0.32294540     0.10000
H918        H  0.38457025  0.32178302  0.34554915     0.08800
N919        N  0.30137314  0.93648686  0.29446592    -0.25600
N920        N  0.29731833  0.95411474  0.29164742    -0.33400
C921        C  0.27866842  0.94605023  0.28205326     0.02800
C922        C  0.27074492  0.92232179  0.27881289     0.08800
C923        C  0.28545269  0.91681480  0.28679587    -0.04300
H924        H  0.27151619  0.95669321  0.27775200     0.09500
H925        H  0.28480675  0.89983775  0.28694815     0.10700
Cu926      Cu  0.31689250  0.98817313  0.30115574     0.44200
Cu927      Cu  0.32833394  0.93927066  0.30832989     0.42000
Cu928      Cu  0.36464628  0.99587926  0.32605436     0.43900
N929        N  0.33774660  0.01885945  0.31387022    -0.33000
N930        N  0.35497921  0.02126875  0.32294350    -0.27200
C931        C  0.36412884  0.04206402  0.33032168    -0.03300
C932        C  0.35209848  0.05345872  0.32572598     0.08900
C933        C  0.33555108  0.03826927  0.31523490     0.02700
H934        H  0.37815047  0.04798361  0.33864464     0.10300
H935        H  0.32239155  0.04079182  0.30936037     0.09400
N936        N  0.37010073  0.96753793  0.32901087    -0.34400
N937        N  0.35654053  0.94641288  0.32253302    -0.26600
C938        C  0.36363169  0.93133194  0.32721910    -0.01800
C939        C  0.38253133  0.94371655  0.33707295     0.06800
C940        C  0.38619949  0.96655362  0.33800572     0.04900
H941        H  0.35522519  0.91262964  0.32399932     0.10000
H942        H  0.39907494  0.98113545  0.34500457     0.08800
N943        N  0.37088244  0.14233219  0.35418658    -0.25600
N944        N  0.38542879  0.14125068  0.36407829    -0.33400
C945        C  0.38725042  0.12202048  0.36125403     0.02800
C946        C  0.37314678  0.11033917  0.34905067     0.08800
C947        C  0.36297212  0.12369520  0.34479589    -0.04300
H948        H  0.39789483  0.11676208  0.36773410     0.09500
H949        H  0.35079914  0.12024563  0.33561530     0.10700
Cu950      Cu  0.40156078  0.16516914  0.38140752     0.44200
Cu951      Cu  0.36319002  0.16953345  0.35402103     0.42000
Cu952      Cu  0.39148393  0.21395886  0.38407704     0.43900
N953        N  0.41423247  0.18910158  0.39890966    -0.33000
N954        N  0.41056410  0.20720434  0.40007040    -0.27200
C955        C  0.42076597  0.21908762  0.41275305    -0.03300
C956        C  0.43130104  0.20776694  0.41988035     0.08900
C957        C  0.42673256  0.18887038  0.41077095     0.02700
H958        H  0.42037057  0.23464319  0.41648861     0.10300
H959        H  0.43207558  0.17581699  0.41265143     0.09400
N960        N  0.37229560  0.21668500  0.36634092    -0.34400
N961        N  0.36181662  0.20057299  0.35568774    -0.26600
C962        C  0.35180072  0.20848743  0.34583125    -0.01800
C963        C  0.35631600  0.23068952  0.35039342     0.06800
C964        C  0.36929289  0.23529512  0.36347460     0.04900
H965        H  0.34262652  0.19912860  0.33579818     0.10000
H966        H  0.37643506  0.25112594  0.37034214     0.08800
N967        N  0.44579279  0.84900223  0.41954854    -0.34900
N968        N  0.42605767  0.87159309  0.40128057    -0.55500
N969        N  0.47035639  0.89475432  0.38319442    -0.34900
N970        N  0.48945714  0.87094802  0.40092189    -0.55500
C971        C  0.42206107  0.83615327  0.42385472     0.28700
C972        C  0.45596559  0.83629458  0.42391876     0.28700
C973        C  0.45585430  0.89951846  0.37487738     0.28700
C974        C  0.48925531  0.89863066  0.37445478     0.28700
C975        C  0.40865720  0.86191081  0.41198909     0.37300
C976        C  0.42186711  0.88657289  0.39312500     0.37300
C977        C  0.49664587  0.86154170  0.41173641     0.37300
C978        C  0.50930424  0.88507788  0.39233367     0.37300
C979        C  0.41722173  0.81524937  0.43125189    -0.20200
C980        C  0.43861648  0.81534958  0.43131083    -0.20200
C981        C  0.46592002  0.90699877  0.36076867    -0.20200
C982        C  0.48696991  0.90641017  0.36049832    -0.20200
C983        C  0.39331018  0.87078150  0.41065860    -0.21200
C984        C  0.40170239  0.88644963  0.39870819    -0.21200
C985        C  0.52122519  0.86976791  0.41005329    -0.21200
C986        C  0.52924684  0.88466267  0.39773336    -0.21200
C987        C  0.40497849  0.84331752  0.42187324    -0.16600
C988        C  0.48070625  0.84360254  0.42201122    -0.16600
C989        C  0.50904821  0.89641580  0.37894478    -0.16600
C990        C  0.43441832  0.89835083  0.37987446    -0.16600
H991        H  0.40007198  0.80137344  0.43614814     0.16300
H992        H  0.44108218  0.80153188  0.43624436     0.16300
H993        H  0.45887962  0.91239523  0.35161252     0.16300
H994        H  0.49926162  0.91130021  0.35110543     0.16300
H995        H  0.37738661  0.86599835  0.41736195     0.14600
H996        H  0.39349382  0.89612168  0.39437987     0.14600
H997        H  0.53204927  0.86496538  0.41673421     0.14600
H998        H  0.54751615  0.89369142  0.39308581     0.14600
H999        H  0.45512915  0.86653189  0.41528734     0.27900
H1000       H  0.46873911  0.89147242  0.39455194     0.27900
N1001       N  0.50069266  0.69601897  0.46619546    -0.25600
N1002       N  0.49183611  0.70202724  0.45485194    -0.33400
C1003       C  0.48464402  0.68521791  0.44429575     0.02800
C1004       C  0.48922466  0.66786030  0.44919218     0.08800
C1005       C  0.49939571  0.67511491  0.46310319    -0.04300
H1006       H  0.47737489  0.68603660  0.43363497     0.09500
H1007       H  0.50597208  0.66629558  0.47024626     0.10700
Cu1008     Cu  0.49206484  0.73388171  0.45324350     0.44200
Cu1009     Cu  0.51556954  0.71776714  0.48471950     0.42000
Cu1010     Cu  0.52128487  0.77692325  0.48213609     0.43900
N1011       N  0.49744990  0.76814522  0.45242739    -0.33000
N1012       N  0.50849213  0.78420402  0.46301657    -0.27200
C1013       C  0.50955364  0.80477786  0.45913384    -0.03300
C1014       C  0.49872159  0.80134677  0.44544340     0.08900
C1015       C  0.49115743  0.77800347  0.44149948     0.02700
H1016       H  0.51741135  0.82086661  0.46583055     0.10300
H1017       H  0.48168784  0.76880246  0.43149493     0.09400
N1018       N  0.53276887  0.76535358  0.50001169    -0.34400
N1019       N  0.53074874  0.74405072  0.50102264    -0.26600
C1020       C  0.54100383  0.74301008  0.51377737    -0.01800
C1021       C  0.54988419  0.76463133  0.52109602     0.06800
C1022       C  0.54430490  0.77837470  0.51205545     0.04900
H1023       H  0.54246789  0.72785276  0.51728238     0.10000
H1024       H  0.54883296  0.79671582  0.51379545     0.08800
N1025       N  0.15970303  0.55942642  0.41811971    -0.34900
N1026       N  0.14592119  0.58683603  0.39927147    -0.55500
N1027       N  0.12521310  0.54803280  0.37775846    -0.34900
N1028       N  0.14024562  0.52132075  0.39598069    -0.55500
C1029       C  0.17220286  0.58129084  0.42469710     0.28700
C1030       C  0.16961396  0.54658207  0.42275709     0.28700
C1031       C  0.12539113  0.56584695  0.36978878     0.28700
C1032       C  0.12229265  0.53096448  0.36805971     0.28700
C1033       C  0.15347026  0.60123323  0.41127714     0.37300
C1034       C  0.13518703  0.59513518  0.39017205     0.37300
C1035       C  0.14612797  0.51055308  0.40663855     0.37300
C1036       C  0.12738744  0.50431107  0.38570784     0.37300
C1037       C  0.18969100  0.58202883  0.43402790    -0.20200
C1038       C  0.18809134  0.56016289  0.43278719    -0.20200
C1039       C  0.12218256  0.55987292  0.35487200    -0.20200
C1040       C  0.12022990  0.53784034  0.35378133    -0.20200
C1041       C  0.14750853  0.61878679  0.40979265    -0.21200
C1042       C  0.13587299  0.61488745  0.39643282    -0.21200
C1043       C  0.13687074  0.48652749  0.40315925    -0.21200
C1044       C  0.12491063  0.48254385  0.38991832    -0.21200
C1045       C  0.16799690  0.60042344  0.42270474    -0.16600
C1046       C  0.16213590  0.52279071  0.41845781    -0.16600
C1047       C  0.12040278  0.50892676  0.37184361    -0.16600
C1048       C  0.12699877  0.58664924  0.37570963    -0.16600
H1049       H  0.20244509  0.59685734  0.44092902     0.16300
H1050       H  0.19936213  0.55493077  0.43857901     0.16300
H1051       H  0.12124863  0.57026306  0.34571908     0.16300
H1052       H  0.11751903  0.52798029  0.34363095     0.16300
H1053       H  0.15166242  0.63326873  0.41736804     0.14600
H1054       H  0.12932404  0.62578770  0.39168024     0.14600
H1055       H  0.13910644  0.47343293  0.40930821     0.14600
H1056       H  0.11615798  0.46578564  0.38383827     0.14600
H1057       H  0.14408836  0.55295549  0.41176389     0.27900
H1058       H  0.12439294  0.54639314  0.38925696     0.27900
N1059       N  0.30416628  0.78682704  0.45489418    -0.25600
N1060       N  0.30153686  0.76930046  0.44622899    -0.33400
C1061       C  0.32195651  0.77752077  0.43803805     0.02800
C1062       C  0.33812046  0.80126851  0.44177507     0.08800
C1063       C  0.32638596  0.80668295  0.45246590    -0.04300
H1064       H  0.32472637  0.76701838  0.42990984     0.09500
H1065       H  0.33330958  0.82380369  0.45794421     0.10700
Cu1066     Cu  0.27031555  0.73502380  0.44587275     0.44200
Cu1067     Cu  0.27692937  0.78306105  0.46912955     0.42000
Cu1068     Cu  0.22107724  0.72374283  0.47071643     0.43900
N1069       N  0.23785780  0.70187775  0.44788576    -0.33000
N1070       N  0.21992903  0.69760190  0.45707855    -0.27200
C1071       C  0.20130252  0.67463711  0.45538887    -0.03300
C1072       C  0.20797801  0.66409845  0.44467739     0.08900
C1073       C  0.23113669  0.68178659  0.44010516     0.02700
H1074       H  0.18399180  0.66649848  0.46121538     0.10300
H1075       H  0.24207527  0.68038337  0.43150887     0.09400
N1076       N  0.22590704  0.75364219  0.48199681    -0.34400
N1077       N  0.24617454  0.77522405  0.48136907    -0.26600
C1078       C  0.24318176  0.79063946  0.48961555    -0.01800
C1079       C  0.21986453  0.77813135  0.49574347     0.06800
C1080       C  0.20950882  0.75475869  0.49068047     0.04900
H1081       H  0.25706953  0.80948899  0.49102360     0.10000
H1082       H  0.19133194  0.73963464  0.49312234     0.08800
N1083       N  0.44287903  0.57389651  0.41223828    -0.34900
N1084       N  0.42900937  0.53914130  0.38821529    -0.55500
N1085       N  0.47692178  0.56876755  0.37516677    -0.34900
N1086       N  0.49013072  0.60431577  0.39858951    -0.55500
C1087       C  0.41842124  0.56036442  0.41422721     0.28700
C1088       C  0.45114990  0.59436761  0.42011447     0.28700
C1089       C  0.46549569  0.55256082  0.36421658     0.28700
C1090       C  0.49723179  0.58794545  0.36917434     0.28700
C1091       C  0.40908295  0.52676029  0.39701579     0.37300
C1092       C  0.42757957  0.52341161  0.37796693     0.37300
C1093       C  0.49426224  0.61641770  0.41142913     0.37300
C1094       C  0.51184579  0.61429345  0.39149245     0.37300
C1095       C  0.41111249  0.57221145  0.42365757    -0.20200
C1096       C  0.43177039  0.59364833  0.42738686    -0.20200
C1097       C  0.47885235  0.56136437  0.35114238    -0.20200
C1098       C  0.49883889  0.58375724  0.35424817    -0.20200
C1099       C  0.39472828  0.50311706  0.39223880    -0.21200
C1100       C  0.40650372  0.50096141  0.38019183    -0.21200
C1101       C  0.51875026  0.63422508  0.41251063    -0.21200
C1102       C  0.52990805  0.63289825  0.39985938    -0.21200
C1103       C  0.40273529  0.53700841  0.40853501    -0.16600
C1104       C  0.47579157  0.61325821  0.42132394    -0.16600
C1105       C  0.51513536  0.60832394  0.37701730    -0.16600
C1106       C  0.44395105  0.52962606  0.36592939    -0.16600
H1107       H  0.39279956  0.56599696  0.42754723     0.16300
H1108       H  0.43241662  0.60714711  0.43464340     0.16300
H1109       H  0.47464285  0.55256405  0.34048101     0.16300
H1110       H  0.51309602  0.59548356  0.34643284     0.16300
H1111       H  0.37741165  0.48900176  0.39682249     0.14600
H1112       H  0.39999639  0.48486772  0.37362981     0.14600
H1113       H  0.52751686  0.64722620  0.42129143     0.14600
H1114       H  0.54901828  0.64464769  0.39699521     0.14600
H1115       H  0.45353056  0.56828884  0.40714411     0.27900
H1116       H  0.47264276  0.56570909  0.38640476     0.27900
N1117       N  0.30274622  0.48006487  0.44131804    -0.25600
N1118       N  0.29793164  0.49379771  0.43287316    -0.33400
C1119       C  0.31705131  0.50740201  0.42380301     0.02800
C1120       C  0.33451479  0.50179156  0.42669875     0.08800
C1121       C  0.32506990  0.48453320  0.43784718    -0.04300
H1122       H  0.31819325  0.52052506  0.41582936     0.09500
H1123       H  0.33383551  0.47611353  0.44320040     0.10700
Cu1124     Cu  0.26584755  0.49368890  0.43396865     0.44200
Cu1125     Cu  0.27938891  0.45675589  0.45758520     0.42000
Cu1126     Cu  0.22183543  0.45415336  0.46120846     0.43900
N1127       N  0.23206505  0.48972817  0.43658172    -0.33000
N1128       N  0.21567443  0.47503500  0.44651496    -0.27200
C1129       C  0.19592679  0.47701754  0.44562210    -0.03300
C1130       C  0.20030698  0.49375382  0.43460786     0.08900
C1131       C  0.22326463  0.50146003  0.42908526     0.02700
H1132       H  0.17986772  0.46735376  0.45263650     0.10300
H1133       H  0.23303327  0.51486318  0.42043682     0.09400
N1134       N  0.23318127  0.43684647  0.47546142    -0.34400
N1135       N  0.25403251  0.43762484  0.47414968    -0.26600
C1136       C  0.25619188  0.42548062  0.48561223    -0.01800
C1137       C  0.23575806  0.41671090  0.49457953     0.06800
C1138       C  0.22152376  0.42423297  0.48778262     0.04900
H1139       H  0.27177747  0.42369733  0.48747243     0.10000
H1140       H  0.20423865  0.42134053  0.49157837     0.08800
N1141       N  0.73021460  0.76328637  0.30238366    -0.25600
N1142       N  0.70786181  0.75909825  0.30410698    -0.33400
C1143       C  0.70427437  0.77255079  0.29428375     0.02800
C1144       C  0.72520669  0.78582402  0.28595221     0.08800
C1145       C  0.74140881  0.77966653  0.29128870    -0.04300
H1146       H  0.68736978  0.77219604  0.29307770     0.09500
H1147       H  0.75970854  0.78619477  0.28725295     0.10700
Cu1148     Cu  0.68141836  0.73423874  0.31853818     0.44200
Cu1149     Cu  0.74390511  0.74563408  0.31478472     0.42000
Cu1150     Cu  0.69588337  0.69636588  0.33717704     0.43900
N1151       N  0.65630145  0.70604649  0.33188665    -0.33000
N1152       N  0.66184563  0.69151895  0.33870326    -0.27200
C1153       C  0.64244088  0.67473097  0.34654346    -0.03300
C1154       C  0.62383009  0.67898906  0.34447683     0.08900
C1155       C  0.63304730  0.69890941  0.33514345     0.02700
H1156       H  0.64201245  0.66062985  0.35327457     0.10300
H1157       H  0.62365686  0.70754449  0.33103676     0.09400
N1158       N  0.73165857  0.70584547  0.33704863    -0.34400
N1159       N  0.74957317  0.72360683  0.32916651    -0.26600
C1160       C  0.77062396  0.72498748  0.33275359    -0.01800
C1161       C  0.76534401  0.70729645  0.34343180     0.06800
C1162       C  0.74061000  0.69566149  0.34583269     0.04900
H1163       H  0.78838934  0.73827947  0.32828801     0.10000
H1164       H  0.72985874  0.68109218  0.35367183     0.08800
N1165       N  0.10071505  0.73295295  0.29476049    -0.25600
N1166       N  0.08589796  0.74130674  0.29534160    -0.33400
C1167       C  0.09465296  0.76081672  0.28635085     0.02800
C1168       C  0.11590057  0.76479015  0.27989551     0.08800
C1169       C  0.11927959  0.74691132  0.28539422    -0.04300
H1170       H  0.08624308  0.77135038  0.28473680     0.09500
H1171       H  0.13418090  0.74430565  0.28288488     0.10700
Cu1172     Cu  0.05486411  0.72643389  0.30856441     0.44200
Cu1173     Cu  0.09592434  0.70361740  0.30699550     0.42000
Cu1174     Cu  0.04600317  0.67812386  0.33304006     0.43900
N1175       N  0.02618685  0.70901478  0.32357059    -0.33000
N1176       N  0.02332686  0.69166314  0.33270209    -0.27200
C1177       C  0.00345981  0.68437105  0.34121981    -0.03300
C1178       C  0.99326555  0.69777745  0.33721475     0.08900
C1179       C  0.00807342  0.71314530  0.32596986     0.02700
H1180       H  0.99691437  0.67018526  0.34955876     0.10300
H1181       H  0.00594695  0.72647492  0.32003880     0.09400
N1182       N  0.07023101  0.66657129  0.33122713    -0.34400
N1183       N  0.08854976  0.67575221  0.32159106    -0.26600
C1184       C  0.10160320  0.66525490  0.32376840    -0.01800
C1185       C  0.09081275  0.64873693  0.33528316     0.06800
C1186       C  0.07105992  0.64999257  0.33978948     0.04900
H1187       H  0.11816875  0.66997713  0.31780974     0.10000
H1188       H  0.05872700  0.64026435  0.34894659     0.08800
N1189       N  0.84796029  0.69514600  0.36271042    -0.25600
N1190       N  0.83190286  0.68731557  0.37372848    -0.33400
C1191       C  0.81427798  0.69166423  0.37032638     0.02800
C1192       C  0.81944133  0.70275933  0.35645619     0.08800
C1193       C  0.84099210  0.70479339  0.35199412    -0.04300
H1194       H  0.79883950  0.68690316  0.37747309     0.09500
H1195       H  0.85061609  0.71223321  0.34159048     0.10700
Cu1196     Cu  0.83364330  0.67030946  0.39280491     0.44200
Cu1197     Cu  0.87796167  0.69148276  0.36260080     0.42000
Cu1198     Cu  0.88457436  0.66251997  0.39544002     0.43900
N1199       N  0.83856587  0.65283814  0.41050906    -0.33000
N1200       N  0.85748933  0.65017379  0.41150001    -0.27200
C1201       C  0.85522101  0.63744116  0.42387925    -0.03300
C1202       C  0.83372272  0.63175451  0.43102690     0.08900
C1203       C  0.82366350  0.64181484  0.42223329     0.02700
H1204       H  0.86803039  0.63227464  0.42713610     0.10300
H1205       H  0.80653705  0.64080582  0.42407156     0.09400
N1206       N  0.90821264  0.67436823  0.37742710    -0.34400
N1207       N  0.90583044  0.68492110  0.36548734    -0.26600
C1208       C  0.92393906  0.69008160  0.35585057    -0.01800
C1209       C  0.93838635  0.68235674  0.36205753     0.06800
C1210       C  0.92785471  0.67244755  0.37568927     0.04900
H1211       H  0.92613010  0.69856161  0.34509860     0.10000
H1212       H  0.93398888  0.66437971  0.38376038     0.08800
O1213       O  0.17904390  0.33617183  0.25146347    -0.71200
O1214       O  0.22342809  0.34251880  0.21812548    -0.72200
O1215       O  0.17793575  0.33973601  0.22016533    -0.60800
O1216       O  0.22465369  0.33903492  0.24940779    -0.69200
O1217       O  0.20528215  0.29900543  0.24801334    -0.68800
O1218       O  0.15830084  0.29970192  0.21868907    -0.60000
O1219       O  0.20393135  0.30247699  0.21663235    -0.72600
O1220       O  0.15944213  0.29611013  0.25011142    -0.71300
Cu1221     Cu  0.20193601  0.34075350  0.23486274     1.04600
Cu1222     Cu  0.18103952  0.29789414  0.23332707     1.04300
C1223       C  0.16213403  0.31522163  0.25588024     0.95000
C1224       C  0.22071255  0.32349604  0.21221607     0.94100
C1225       C  0.16078144  0.31986666  0.21487392     0.86200
C1226       C  0.22252941  0.31900686  0.25312972     0.92500
O1227       O  0.74392053  0.84659695  0.21548334    -0.71200
O1228       O  0.74236357  0.88891044  0.24766126    -0.72200
O1229       O  0.74584875  0.84693795  0.24713248    -0.60800
O1230       O  0.74139619  0.88898705  0.21604224    -0.69200
O1231       O  0.70089192  0.86604580  0.21680621    -0.68800
O1232       O  0.70536943  0.82380722  0.24805423    -0.60000
O1233       O  0.70189436  0.86555640  0.24827166    -0.72600
O1234       O  0.70342769  0.82384633  0.21656134    -0.71300
Cu1235     Cu  0.74484178  0.86867687  0.23155857     1.04600
Cu1236     Cu  0.70150205  0.84400753  0.23246473     1.04300
C1237       C  0.72371159  0.82861906  0.21097971     0.95000
C1238       C  0.72166581  0.88375086  0.25291000     0.94100
C1239       C  0.72636827  0.82885074  0.25248872     0.86200
C1240       C  0.72054601  0.88410440  0.21151550     0.92500
N1241       N  0.09407551  0.39244770  0.14600458    -0.25600
N1242       N  0.07306832  0.38479720  0.13926584    -0.33400
C1243       C  0.07375469  0.40366624  0.13248863     0.02800
C1244       C  0.09622691  0.42407615  0.13515867     0.08800
C1245       C  0.10875817  0.41643258  0.14369542    -0.04300
H1246       H  0.05927655  0.40244519  0.12573240     0.09500
H1247       H  0.12731933  0.42730072  0.14760959     0.10700
Cu1248     Cu  0.04527527  0.34877680  0.13869609     0.44200
Cu1249     Cu  0.10153117  0.36943608  0.15759592     0.42000
Cu1250     Cu  0.05351946  0.30488993  0.15850695     0.43900
N1251       N  0.02076575  0.31181087  0.13779511    -0.33000
N1252       N  0.02345902  0.29546712  0.14489459    -0.27200
C1253       C  0.00476869  0.27326532  0.14125168    -0.03300
C1254       C  0.98975592  0.27582690  0.13132816     0.08900
C1255       C  0.00053244  0.30059354  0.12948382     0.02700
H1256       H  0.00256209  0.25646934  0.14524410     0.10300
H1257       H  0.99448043  0.30997633  0.12244738     0.09400
N1258       N  0.08614146  0.32014817  0.17049586    -0.34400
N1259       N  0.10344824  0.34338271  0.16986651    -0.26600
C1260       C  0.12191978  0.34736675  0.17876887    -0.01800
C1261       C  0.11602260  0.32570176  0.18532916     0.06800
C1262       C  0.09327150  0.30878234  0.17990606     0.04900
H1263       H  0.13834374  0.36482705  0.18041730     0.10000
H1264       H  0.08266205  0.28967615  0.18261026     0.08800
N1265       N  0.65135833  0.94374724  0.13465734    -0.25600
N1266       N  0.66026847  0.96144322  0.12466724    -0.33400
C1267       C  0.64183727  0.95933439  0.11645652     0.02800
C1268       C  0.62042333  0.93939365  0.12158835     0.08800
C1269       C  0.62699867  0.92984691  0.13309210    -0.04300
H1270       H  0.64397021  0.97109471  0.10723155     0.09500
H1271       H  0.61512685  0.91370907  0.13958538     0.10700
Cu1272     Cu  0.69720879  0.98688676  0.12241578     0.44200
Cu1273     Cu  0.67321102  0.93891196  0.14925778     0.42000
Cu1274     Cu  0.73919148  0.98130839  0.14664296     0.43900
N1275       N  0.73462193  0.01108039  0.12244264    -0.33000
N1276       N  0.75006916  0.00935871  0.13124642    -0.27200
C1277       C  0.77267952  0.02867952  0.12880591    -0.03300
C1278       C  0.77137322  0.04318969  0.11794813     0.08900
C1279       C  0.74690876  0.03138567  0.11418126     0.02700
H1280       H  0.78882425  0.03213385  0.13468611     0.10300
H1281       H  0.73836623  0.03728437  0.10631942     0.09400
N1282       N  0.72241418  0.95196196  0.16136807    -0.34400
N1283       N  0.69848771  0.93682588  0.16225601    -0.26600
C1284       C  0.69343325  0.92006991  0.17282436    -0.01800
C1285       C  0.71513928  0.92488564  0.17887022     0.06800
C1286       C  0.73321095  0.94515195  0.17141692     0.04900
H1287       H  0.67526720  0.90546751  0.17585393     0.10000
H1288       H  0.75269467  0.95428564  0.17315742     0.08800
N1289       N  0.90499938  0.22543181  0.08824350    -0.25600
N1290       N  0.90245932  0.20783867  0.09709365    -0.33400
C1291       C  0.92043793  0.21733148  0.10726584     0.02800
C1292       C  0.93489533  0.24207946  0.10471297     0.08800
C1293       C  0.92450845  0.24645687  0.09261207    -0.04300
H1294       H  0.92248107  0.20701469  0.11600743     0.09500
H1295       H  0.93062824  0.26381689  0.08740062     0.10700
Cu1296     Cu  0.87368386  0.17190441  0.09557026     0.44200
Cu1297     Cu  0.88191291  0.22115033  0.07064074     0.42000
Cu1298     Cu  0.83075166  0.16196329  0.06608442     0.43900
N1299       N  0.84086203  0.13917035  0.09238879    -0.33000
N1300       N  0.82547931  0.13605161  0.08167159    -0.27200
C1301       C  0.80524869  0.11403001  0.08312051    -0.03300
C1302       C  0.80782878  0.10252727  0.09527308     0.08900
C1303       C  0.83069552  0.11895113  0.10093387     0.02700
H1304       H  0.78942917  0.10714872  0.07606115     0.10300
H1305       H  0.83893970  0.11680743  0.11081111     0.09400
N1306       N  0.83695702  0.19049268  0.05249585    -0.34400
N1307       N  0.85591815  0.21265800  0.05410316    -0.26600
C1308       C  0.85447271  0.22724378  0.04396052    -0.01800
C1309       C  0.83353517  0.21357280  0.03563290     0.06800
C1310       C  0.82292148  0.19029741  0.04138285     0.04900
H1311       H  0.86753351  0.24645410  0.04282991     0.10000
H1312       H  0.80614431  0.17436613  0.03791213     0.08800
N1313       N  0.29642249  0.33099414  0.16593630    -0.25600
N1314       N  0.30263952  0.35392555  0.16574279    -0.33400
C1315       C  0.28724158  0.35641145  0.17454507     0.02800
C1316       C  0.27060935  0.33405871  0.18051933     0.08800
C1317       C  0.27685245  0.31830730  0.17491795    -0.04300
H1318       H  0.28834548  0.37333565  0.17659665     0.09500
H1319       H  0.26807630  0.29915747  0.17731973     0.10700
Cu1320     Cu  0.33179121  0.38144586  0.15391940     0.44200
Cu1321     Cu  0.31473591  0.31779757  0.15411456     0.42000
Cu1322     Cu  0.36441784  0.36301644  0.13127541     0.43900
N1323       N  0.36090818  0.40534128  0.14051356    -0.33000
N1324       N  0.37289198  0.39835803  0.13211490    -0.27200
C1325       C  0.38998396  0.41738380  0.12415679    -0.03300
C1326       C  0.38867602  0.43722474  0.12778828     0.08900
C1327       C  0.37005257  0.42908370  0.13813366     0.02700
H1328       H  0.40195773  0.41663083  0.11603095     0.10300
H1329       H  0.36318168  0.43939365  0.14321474     0.09400
N1330       N  0.35330204  0.32685140  0.13161831    -0.34400
N1331       N  0.33544496  0.31014407  0.14005475    -0.26600
C1332       C  0.33303292  0.28860818  0.13739402    -0.01800
C1333       C  0.35020018  0.29211200  0.12672159     0.06800
C1334       C  0.36261357  0.31649687  0.12334513     0.04900
H1335       H  0.31954726  0.27172232  0.14264657     0.10000
H1336       H  0.37731728  0.32605256  0.11535742     0.08800
N1337       N  0.30238049  0.93630954  0.16416333    -0.25600
N1338       N  0.29651404  0.95299594  0.16445845    -0.33400
C1339       C  0.27643005  0.94489872  0.17297983     0.02800
C1340       C  0.26952298  0.92211275  0.17816705     0.08800
C1341       C  0.28626724  0.91719223  0.17244398    -0.04300
H1342       H  0.26788019  0.95504415  0.17544219     0.09500
H1343       H  0.28707568  0.90117851  0.17442146     0.10700
Cu1344     Cu  0.31666559  0.98621319  0.15369571     0.44200
Cu1345     Cu  0.33257245  0.94029852  0.15333439     0.42000
Cu1346     Cu  0.37287881  0.99773631  0.13602052     0.43900
N1347       N  0.33981450  0.01709821  0.14133239    -0.33000
N1348       N  0.36019897  0.02122119  0.13494888    -0.27200
C1349       C  0.36989402  0.04174775  0.12685211    -0.03300
C1350       C  0.35498565  0.05102486  0.12819335     0.08900
C1351       C  0.33608307  0.03497370  0.13750999     0.02700
H1352       H  0.38619966  0.04896719  0.12006567     0.10300
H1353       H  0.32025548  0.03559298  0.14079114     0.09400
N1354       N  0.37922221  0.96955195  0.13604748    -0.50000
N1355       N  0.36407862  0.94824810  0.14227358    -0.26600
C1356       C  0.37166688  0.93302553  0.13918991    -0.01800
C1357       C  0.39260832  0.94542584  0.13066188     0.06800
C1358       C  0.39692233  0.96847346  0.12881218     0.04900
H1359       H  0.36195657  0.91406173  0.14228591     0.10000
H1360       H  0.41102861  0.98294191  0.12204349     0.08800
N1361       N  0.34898096  0.13721255  0.10920264    -0.25600
N1362       N  0.36150237  0.13415709  0.09870483    -0.33400
C1363       C  0.36139382  0.11378025  0.10163752     0.02800
C1364       C  0.34821912  0.10350368  0.11461409     0.08800
C1365       C  0.34043195  0.11870294  0.11900972    -0.04300
H1366       H  0.37073763  0.10732535  0.09495012     0.09500
H1367       H  0.33023415  0.11702243  0.12898182     0.10700
Cu1368     Cu  0.38024754  0.15842377  0.08140021     0.44200
Cu1369     Cu  0.34639914  0.16771024  0.11095110     0.42000
Cu1370     Cu  0.38349624  0.21470475  0.08411536     0.43900
N1371       N  0.39951287  0.18666451  0.06627386    -0.33000
N1372       N  0.40074467  0.20751771  0.06742817    -0.27200
C1373       C  0.41421609  0.22218421  0.05613360    -0.03300
C1374       C  0.42190963  0.21004525  0.04740715     0.08900
C1375       C  0.41224350  0.18749483  0.05417114     0.02700
H1376       H  0.41790922  0.24029283  0.05431520     0.10300
H1377       H  0.41400622  0.17266588  0.05054645     0.09400
N1378       N  0.36452016  0.21879572  0.10116800    -0.34400
N1379       N  0.35063325  0.20173751  0.11097502    -0.26600
C1380       C  0.34115573  0.21061264  0.12049219    -0.01800
C1381       C  0.34956112  0.23437499  0.11645832     0.06800
C1382       C  0.36431179  0.23887415  0.10412973     0.04900
H1383       H  0.32923399  0.20060258  0.12974961     0.10000
H1384       H  0.37426598  0.25544089  0.09768971     0.08800
N1385       N  0.31571071  0.79707481  0.00628809    -0.25600
N1386       N  0.31128211  0.77930029  0.01556812    -0.33400
C1387       C  0.33016043  0.78714979  0.02493561     0.02800
C1388       C  0.34713587  0.81095099  0.02135484     0.08800
C1389       C  0.33753388  0.81673355  0.00949259    -0.04300
H1390       H  0.33126429  0.77641525  0.03379861     0.09500
H1391       H  0.34558449  0.83398861  0.00375491     0.10700
Cu1392     Cu  0.27926635  0.74557614  0.01543600     0.44200
Cu1393     Cu  0.29111955  0.79394698  0.99031200     0.42000
Cu1394     Cu  0.23224454  0.73695841  0.98970605     0.43900
N1395       N  0.24546767  0.71376412  0.01397971    -0.33000
N1396       N  0.22817124  0.71049062  0.00463908    -0.27200
C1397       C  0.20829347  0.68830354  0.00699243    -0.03300
C1398       C  0.21350130  0.67727217  0.01832056     0.08900
C1399       C  0.23710581  0.69380935  0.02250057     0.02700
H1400       H  0.19123426  0.68102008  0.00112183     0.10300
H1401       H  0.24729302  0.69173686  0.03131144     0.09400
N1402       N  0.24105621  0.76686054  0.97645113    -0.34400
N1403       N  0.26251881  0.78734867  0.97656698    -0.26600
C1404       C  0.26211624  0.80310027  0.96697478    -0.01800
C1405       C  0.23931690  0.79214515  0.96057920     0.06800
C1406       C  0.22640041  0.76910922  0.96680914     0.04900
H1407       H  0.27720955  0.82139332  0.96500840     0.10000
H1408       H  0.20773119  0.75502843  0.96463383     0.08800
N1409       N  0.17258251  0.57603772  0.04749112    -0.34900
N1410       N  0.14919180  0.59660810  0.06398037    -0.55500
N1411       N  0.13227119  0.55814388  0.08616405    -0.34900
N1412       N  0.15705314  0.53843069  0.07019457    -0.55500
C1413       C  0.18298493  0.59813398  0.04092061     0.28700
C1414       C  0.18639077  0.56672947  0.04388796     0.28700
C1415       C  0.12710150  0.57326113  0.09317443     0.28700
C1416       C  0.13122424  0.54231547  0.09645996     0.28700
C1417       C  0.15619950  0.61112549  0.05181790     0.37300
C1418       C  0.13449089  0.60139122  0.07198447     0.37300
C1419       C  0.16620238  0.52996962  0.06009713     0.37300
C1420       C  0.14535429  0.52077996  0.08056365     0.37300
C1421       C  0.20340336  0.60270764  0.03285781    -0.20200
C1422       C  0.20550346  0.58286021  0.03469427    -0.20200
C1423       C  0.12227999  0.56667579  0.10806612    -0.20200
C1424       C  0.12485407  0.54712949  0.11013119    -0.20200
C1425       C  0.14579627  0.62514760  0.05203316    -0.21200
C1426       C  0.13199488  0.61894990  0.06480505    -0.21200
C1427       C  0.16045436  0.50689934  0.06411294    -0.21200
C1428       C  0.14725683  0.50107764  0.07709348    -0.21200
C1429       C  0.17405849  0.61387427  0.04153757    -0.16600
C1430       C  0.18160086  0.54365939  0.04813387    -0.16600
C1431       C  0.13466737  0.52294482  0.09368333    -0.16600
C1432       C  0.12557881  0.59213076  0.08638485    -0.16600
H1433       H  0.21552664  0.61866294  0.02628453     0.16300
H1434       H  0.21956956  0.58060875  0.02984262     0.16300
H1435       H  0.11731073  0.57500961  0.11656833     0.16300
H1436       H  0.12226236  0.53751986  0.12051500     0.16300
H1437       H  0.14846847  0.63890972  0.04405481     0.14600
H1438       H  0.12192901  0.62701552  0.06860541     0.14600
H1439       H  0.16570165  0.49566313  0.05846922     0.14600
H1440       H  0.14026572  0.48442302  0.08339061     0.14600
H1441       H  0.15572023  0.56679243  0.05284419     0.27900
H1442       H  0.13387056  0.55709733  0.07476914     0.27900
N1443       N  0.52362841  0.71811606  0.99327271    -0.25600
N1444       N  0.50944875  0.72090624  0.00259901    -0.33400
C1445       C  0.49708617  0.70095085  0.01114841     0.02800
C1446       C  0.50386794  0.68496121  0.00694238     0.08800
C1447       C  0.52072584  0.69628633  0.99563096    -0.04300
H1448       H  0.48501173  0.69877652  0.02021061     0.09500
H1449       H  0.53091475  0.68968058  0.99000015     0.10700
Cu1450     Cu  0.50973564  0.75268306  0.00447254     0.44200
Cu1451     Cu  0.54764267  0.74511045  0.97886960     0.42000
Cu1452     Cu  0.55082601  0.80302766  0.98086912     0.43900
N1453       N  0.51439040  0.78654920  0.00585781    -0.33000
N1454       N  0.52941412  0.80514914  0.99725179    -0.27200
C1455       C  0.52843759  0.82453803  0.00124920    -0.03300
C1456       C  0.51202864  0.81759174  0.01288926     0.08900
C1457       C  0.50348109  0.79352405  0.01556107     0.02700
H1458       H  0.53900061  0.84230582  0.99614970     0.10300
H1459       H  0.49045020  0.78194853  0.02399620     0.09400
N1460       N  0.57082010  0.79569203  0.96614235    -0.34400
N1461       N  0.56983873  0.77486770  0.96561898    -0.26600
C1462       C  0.58498488  0.77609751  0.95490921    -0.01800
C1463       C  0.59600580  0.79879798  0.94834719     0.06800
C1464       C  0.58658625  0.81070824  0.95569907     0.04900
H1465       H  0.58730397  0.76131574  0.95200265     0.10000
H1466       H  0.59074255  0.82890440  0.95354553     0.08800
N1467       N  0.45360156  0.85754712  0.04312969    -0.34900
N1468       N  0.49676180  0.87534608  0.06154924    -0.55500
N1469       N  0.47673357  0.89434996  0.08245060    -0.34900
N1470       N  0.43272015  0.87483018  0.06477872    -0.55500
C1471       C  0.46445235  0.84691000  0.03653707     0.28700
C1472       C  0.43008382  0.84570074  0.03862273     0.28700
C1473       C  0.49563041  0.89671317  0.09044524     0.28700
C1474       C  0.46220561  0.89740338  0.09186547     0.28700
C1475       C  0.50439166  0.86858374  0.04961465     0.37300
C1476       C  0.51627333  0.88736453  0.07051550     0.37300
C1477       C  0.41503455  0.86663300  0.05442193     0.37300
C1478       C  0.42795797  0.88742078  0.07462215     0.37300
C1479       C  0.44783052  0.82854029  0.02742307    -0.20200
C1480       C  0.42616700  0.82774572  0.02875666    -0.20200
C1481       C  0.49319244  0.90155974  0.10509679    -0.20200
C1482       C  0.47213510  0.90205813  0.10598435    -0.20200
C1483       C  0.52884353  0.87620155  0.05104206    -0.21200
C1484       C  0.53637496  0.88810291  0.06428773    -0.21200
C1485       C  0.39880523  0.87387237  0.05775914    -0.21200
C1486       C  0.40705859  0.88715172  0.07051606    -0.21200
C1487       C  0.48906660  0.85364794  0.03820381    -0.16600
C1488       C  0.41223388  0.85107322  0.04273182    -0.16600
C1489       C  0.44091355  0.89728375  0.08791565    -0.16600
C1490       C  0.51573183  0.89608095  0.08471389    -0.16600
H1491       H  0.45091149  0.81678158  0.02057802     0.16300
H1492       H  0.40941595  0.81528812  0.02309411     0.16300
H1493       H  0.50543882  0.90465614  0.11418800     0.16300
H1494       H  0.46499499  0.90553263  0.11589933     0.16300
H1495       H  0.53995707  0.87305836  0.04348466     0.14600
H1496       H  0.55445855  0.89599256  0.06892343     0.14600
H1497       H  0.38251310  0.86969603  0.05176058     0.14600
H1498       H  0.39828672  0.89511783  0.07631827     0.14600
H1499       H  0.46233464  0.87332155  0.04923832     0.27900
H1500       H  0.47531707  0.89354307  0.07097556     0.27900
N1501       N  0.45249007  0.58272086  0.03717248    -0.34900
N1502       N  0.49682452  0.61283080  0.05456973    -0.55500
N1503       N  0.48039198  0.57433430  0.07651160    -0.34900
N1504       N  0.43492730  0.54529637  0.05997128    -0.55500
C1505       C  0.46149422  0.60422454  0.03007162     0.28700
C1506       C  0.42921900  0.56805758  0.03259000     0.28700
C1507       C  0.50037319  0.59208934  0.08346487     0.28700
C1508       C  0.46701313  0.55678886  0.08671055     0.28700
C1509       C  0.50212426  0.62745137  0.04257144     0.37300
C1510       C  0.51736701  0.62256599  0.06278782     0.37300
C1511       C  0.41671755  0.53339111  0.05008780     0.37300
C1512       C  0.43093757  0.52932134  0.07097175     0.37300
C1513       C  0.44396337  0.60295988  0.02052168    -0.20200
C1514       C  0.42365546  0.58015859  0.02208257    -0.20200
C1515       C  0.49997036  0.58545359  0.09819117    -0.20200
C1516       C  0.47893057  0.56324197  0.10024614    -0.20200
C1517       C  0.52609595  0.64670636  0.04324059    -0.21200
C1518       C  0.53576676  0.64356482  0.05600252    -0.21200
C1519       C  0.40098404  0.50977371  0.05487419    -0.21200
C1520       C  0.40996575  0.50718788  0.06808579    -0.21200
C1521       C  0.48525412  0.62477025  0.03158837    -0.16600
C1522       C  0.41286015  0.54402894  0.03749302    -0.16600
C1523       C  0.44484587  0.53473172  0.08408243    -0.16600
C1524       C  0.51926052  0.61382550  0.07684295    -0.16600
H1525       H  0.44557013  0.61702558  0.01318827     0.16300
H1526       H  0.40663929  0.57338374  0.01623196     0.16300
H1527       H  0.51337915  0.59560906  0.10662481     0.16300
H1528       H  0.47310232  0.55299948  0.11055930     0.16300
H1529       H  0.53556182  0.66163708  0.03543372     0.14600
H1530       H  0.55410778  0.65563960  0.05997111     0.14600
H1531       H  0.38447693  0.49597791  0.04955799     0.14600
H1532       H  0.40172212  0.49094185  0.07490294     0.14600
H1533       H  0.46233092  0.57773926  0.04378745     0.27900
H1534       H  0.47725294  0.57316630  0.06518444     0.27900
N1535       N  0.31264950  0.49649238  0.00497871    -0.25600
N1536       N  0.30921332  0.50726937  0.01627063    -0.33400
C1537       C  0.32881466  0.51682515  0.02510733     0.02800
C1538       C  0.34535679  0.51184069  0.01911971     0.08800
C1539       C  0.33471436  0.49898925  0.00634503    -0.04300
H1540       H  0.33111571  0.52725189  0.03493199     0.09500
H1541       H  0.34260150  0.49249592  0.99845631     0.10700
Cu1542     Cu  0.27896897  0.51010596  0.01894682     0.44200
Cu1543     Cu  0.28730643  0.47996961  0.98807311     0.42000
Cu1544     Cu  0.23274663  0.48376060  0.99099832     0.43900
N1545       N  0.24764011  0.51142627  0.01949202    -0.33000
N1546       N  0.23053519  0.50168969  0.00924522    -0.27200
C1547       C  0.21255895  0.50555293  0.01278548    -0.03300
C1548       C  0.21882225  0.51830934  0.02584313     0.08900
C1549       C  0.24109901  0.52180145  0.02981803     0.02700
H1550       H  0.19625667  0.49958898  0.00631540     0.10300
H1551       H  0.25179820  0.53119345  0.03945233     0.09400
N1552       N  0.23896052  0.46619264  0.97409811    -0.34400
N1553       N  0.25862966  0.46470938  0.97304367    -0.26600
C1554       C  0.25641800  0.45134917  0.96115638    -0.01800
C1555       C  0.23425683  0.44405266  0.95442271     0.06800
C1556       C  0.22377454  0.45387219  0.96291175     0.04900
H1557       H  0.26985403  0.44704223  0.95787989     0.10000
H1558       H  0.20612234  0.45178126  0.96126799     0.08800
N1559       N  0.72106896  0.75806887  0.16347437    -0.25600
N1560       N  0.69908522  0.75446864  0.16115850    -0.33400
C1561       C  0.69577982  0.76884748  0.17025833     0.02800
C1562       C  0.71661488  0.78200007  0.17861054     0.08800
C1563       C  0.73225025  0.77476314  0.17409078    -0.04300
H1564       H  0.67944564  0.76968720  0.17071585     0.09500
H1565       H  0.75047780  0.78125328  0.17811198     0.10700
Cu1566     Cu  0.67439570  0.73057991  0.14560380     0.44200
Cu1567     Cu  0.73595928  0.74148882  0.15170431     0.42000
Cu1568     Cu  0.69868259  0.70498010  0.12132266     0.43900
N1569       N  0.65390035  0.70635289  0.12890333    -0.33000
N1570       N  0.66310084  0.69712854  0.11990016    -0.27200
C1571       C  0.64574404  0.68206918  0.11038915    -0.03300
C1572       C  0.62462559  0.68180278  0.11356654     0.08900
C1573       C  0.63033887  0.69735191  0.12534987     0.02700
H1574       H  0.64828585  0.67192396  0.10188669     0.10300
H1575       H  0.61827981  0.70169330  0.13097398     0.09400
N1576       N  0.73409617  0.71343470  0.12497345    -0.34400
N1577       N  0.74769361  0.72618558  0.13627097    -0.26600
C1578       C  0.76943117  0.72784330  0.13539526    -0.01800
C1579       C  0.76953596  0.71570947  0.12287028     0.06800
C1580       C  0.74675902  0.70675801  0.11658371     0.04900
H1581       H  0.78412439  0.73732491  0.14322693     0.10000
H1582       H  0.73958628  0.69587128  0.10675269     0.08800
N1583       N  0.09726827  0.73730628  0.16380069    -0.25600
N1584       N  0.08086981  0.74349555  0.16572593    -0.33400
C1585       C  0.09010540  0.76246409  0.17494693     0.02800
C1586       C  0.11330250  0.76832874  0.17887506     0.08800
C1587       C  0.11728813  0.75211309  0.17167733    -0.04300
H1588       H  0.08054264  0.77111082  0.17862062     0.09500
H1589       H  0.13338626  0.75088037  0.17227518     0.10700
Cu1590     Cu  0.04671297  0.72587022  0.15577147     0.44200
Cu1591     Cu  0.09227700  0.70879898  0.15104138     0.42000
Cu1592     Cu  0.03618383  0.67625046  0.13197122     0.43900
N1593       N  0.01546037  0.70568755  0.14313326    -0.33000
N1594       N  0.01208110  0.68787218  0.13448937    -0.27200
C1595       C  0.99093527  0.67907170  0.12726608    -0.03300
C1596       C  0.98031276  0.69193301  0.13150824     0.08900
C1597       C  0.99634634  0.70863255  0.14161868     0.02700
H1598       H  0.98421043  0.66460934  0.11933404     0.10300
H1599       H  0.99453042  0.72228465  0.14719365     0.09400
N1600       N  0.06272741  0.66761026  0.13057418    -0.34400
N1601       N  0.08364912  0.67970629  0.13769912    -0.26600
C1602       C  0.09747471  0.67048367  0.13428904    -0.01800
C1603       C  0.08448196  0.65171815  0.12457726     0.06800
C1604       C  0.06259359  0.65034411  0.12240185     0.04900
H1605       H  0.11577167  0.67730691  0.13830127     0.10000
H1606       H  0.04791367  0.63812847  0.11517845     0.08800
N1607       N  0.83553258  0.68860291  0.09712001    -0.25600
N1608       N  0.82144668  0.67963432  0.08532171    -0.33400
C1609       C  0.80352496  0.68430873  0.08610840     0.02800
C1610       C  0.80613903  0.69661893  0.09902062     0.08800
C1611       C  0.82669764  0.69915382  0.10578818    -0.04300
H1612       H  0.78895403  0.67822059  0.07813038     0.09500
H1613       H  0.83421076  0.70727140  0.11640228     0.10700
Cu1614     Cu  0.82452250  0.65901569  0.06912091     0.44200
Cu1615     Cu  0.86494131  0.68434118  0.10127142     0.42000
Cu1616     Cu  0.86940626  0.64436766  0.07496031     0.43900
N1617       N  0.82927850  0.63702157  0.05488206    -0.33000
N1618       N  0.84618150  0.63168732  0.05711348    -0.27200
C1619       C  0.84524085  0.61729770  0.04620729    -0.03300
C1620       C  0.82672581  0.61323935  0.03667461     0.08900
C1621       C  0.81691664  0.62602529  0.04249745     0.02700
H1622       H  0.85709296  0.61020665  0.04532885     0.10300
H1623       H  0.80203198  0.62736045  0.03812082     0.09400
N1624       N  0.89221549  0.66001175  0.09279517    -0.34400
N1625       N  0.89131148  0.67495274  0.10226969    -0.26600
C1626       C  0.90973195  0.68235798  0.11200746    -0.01800
C1627       C  0.92260855  0.67138971  0.10839940     0.06800
C1628       C  0.91093803  0.65738271  0.09624405     0.04900
H1629       H  0.91345487  0.69482031  0.12093546     0.10000
H1630       H  0.91597056  0.64636622  0.09013448     0.08800
O1631       O  0.15703494  0.83371437  0.21384295    -0.71200
O1632       O  0.20230346  0.87845904  0.24501430    -0.72200
O1633       O  0.20172910  0.87919475  0.21358378    -0.60800
O1634       O  0.15759741  0.83278846  0.24528023    -0.69200
O1635       O  0.17832739  0.81417693  0.24464736    -0.68800
O1636       O  0.22222026  0.86033101  0.21308160    -0.60000
O1637       O  0.22290263  0.85972083  0.24442600    -0.72600
O1638       O  0.17761449  0.81495404  0.21326933    -0.71300
Cu1639     Cu  0.17892604  0.85669712  0.22945901     1.04600
Cu1640     Cu  0.20099249  0.83663667  0.22884371     1.04300
C1641       C  0.16017172  0.81728577  0.20873813     0.95000
C1642       C  0.21983698  0.87623640  0.24947642     0.94100
C1643       C  0.21896371  0.87702795  0.20844914     0.86200
C1644       C  0.16098367  0.81611005  0.24981634     0.92500
C1645       C  0.14360616  0.80093771  0.19788127    -0.11600
C1646       C  0.12958573  0.78650290  0.18906985    -0.13100
C1647       C  0.95753325  0.68948588  0.12589085    -0.14700
C1648       C  0.94457484  0.67376809  0.11514158    -0.29900
H1649       H  0.95180290  0.70120357  0.13035427     0.14300
H1650       H  0.95058805  0.66236918  0.11056706     0.14900
C1651       C  0.78942877  0.71237474  0.11769523    -0.14700
C1652       C  0.78838912  0.70272018  0.10439232    -0.29900
H1653       H  0.80474906  0.71748782  0.12499948     0.14300
H1654       H  0.77325273  0.69816366  0.09706135     0.14900
C1655       C  0.60142243  0.66772819  0.10623201    -0.16800
C1656       C  0.58231288  0.65553592  0.09981133     0.07300
C1657       C  0.56020166  0.64099384  0.09204984     0.09100
C1658       C  0.54153186  0.62858281  0.08525183    -0.17600
C1659       C  0.36957410  0.52075156  0.02452551    -0.11600
C1660       C  0.38954962  0.53039226  0.03003678    -0.13100
C1661       C  0.49844145  0.84277177  0.02842673    -0.11600
C1662       C  0.50528836  0.83218069  0.02092862    -0.13100
C1663       C  0.49754214  0.66290057  0.01447082    -0.11600
C1664       C  0.49220442  0.64519818  0.02180287    -0.13100
C1665       C  0.11569574  0.60372098  0.09507334    -0.16800
C1666       C  0.10815719  0.61398454  0.10229761     0.07300
C1667       C  0.09980393  0.62661384  0.11053164     0.09100
C1668       C  0.09280846  0.63785209  0.11720118    -0.17600
C1669       C  0.19427478  0.53412726  0.04022188    -0.11600
C1670       C  0.20522306  0.52665406  0.03361866    -0.13100
C1671       C  0.36989544  0.82651570  0.02870406    -0.11600
C1672       C  0.38905873  0.83850904  0.03504251    -0.13100
C1673       C  0.19743648  0.65412336  0.02524992    -0.11600
C1674       C  0.18573081  0.63538350  0.03214275    -0.13100
C1675       C  0.23525496  0.89373765  0.19741913    -0.11600
C1676       C  0.25026006  0.90718000  0.18844431    -0.13100
C1677       C  0.35816965  0.07238192  0.12011180    -0.14700
C1678       C  0.34443796  0.08194876  0.12279238    -0.29900
H1679       H  0.37266843  0.08067894  0.11184273     0.14300
H1680       H  0.33071002  0.07443810  0.13154646     0.14900
C1681       C  0.43141144  0.90722812  0.09835502    -0.16800
C1682       C  0.42348633  0.91591078  0.10669960     0.07300
C1683       C  0.41373007  0.92632898  0.11586432     0.09100
C1684       C  0.40464542  0.93520879  0.12302734    -0.17600
C1685       C  0.34400288  0.25117675  0.12390975    -0.14700
C1686       C  0.35481843  0.27449014  0.11965691    -0.29900
H1687       H  0.33109929  0.24430463  0.13311705     0.14300
H1688       H  0.36810102  0.28139647  0.11066763     0.14900
C1689       C  0.43518668  0.51648547  0.09577000    -0.16800
C1690       C  0.42573249  0.50008979  0.10468704     0.07300
C1691       C  0.41336212  0.47945219  0.11397530     0.09100
C1692       C  0.40220342  0.46070816  0.12087183    -0.17600
C1693       C  0.79169089  0.06683339  0.11233056    -0.14700
C1694       C  0.78857057  0.07860822  0.10104807    -0.29900
H1695       H  0.80939227  0.07459779  0.11756922     0.14300
H1696       H  0.77102289  0.07043320  0.09559267     0.14900
C1697       C  0.53699102  0.90462960  0.09403675    -0.16800
C1698       C  0.55517773  0.91209908  0.10135465     0.07300
C1699       C  0.57717982  0.92127584  0.10923310     0.09100
C1700       C  0.59660214  0.92942951  0.11526999    -0.17600
C1701       C  0.95647679  0.26085237  0.11287684    -0.14700
C1702       C  0.96767940  0.25618117  0.12386073    -0.29900
H1703       H  0.96364690  0.27939922  0.10932506     0.14300
H1704       H  0.96097816  0.23762238  0.12721660     0.14900
C1705       C  0.12716957  0.50430862  0.10500686    -0.16800
C1706       C  0.12074685  0.48761607  0.11355748     0.07300
C1707       C  0.11280789  0.46665441  0.12234155     0.09100
C1708       C  0.10553111  0.44769269  0.12876547    -0.17600
C1709       C  0.72340030  0.81335447  0.19942911    -0.11600
C1710       C  0.72095970  0.79941082  0.18984186    -0.13100
C1711       C  0.71925770  0.89907367  0.20019098    -0.11600
C1712       C  0.71796179  0.91128236  0.19050607    -0.13100
C1713       C  0.14406541  0.32034353  0.20448103    -0.11600
C1714       C  0.13072953  0.32197533  0.19576697    -0.13100
C1715       C  0.25185664  0.32888873  0.19121156    -0.11600
C1716       C  0.23709648  0.32586983  0.20058383    -0.13100
C1717       C  0.13146411  0.78366842  0.26959174    -0.11600
C1718       C  0.14485509  0.79894744  0.26073659    -0.13100
C1719       C  0.96020207  0.68369921  0.35576986    -0.14700
C1720       C  0.97128395  0.69632143  0.34333206    -0.29900
H1721       H  0.96756376  0.67442781  0.36180198     0.14300
H1722       H  0.96450135  0.70637653  0.33760919     0.14900
C1723       C  0.72821908  0.80159652  0.27374576    -0.11600
C1724       C  0.72808377  0.81413938  0.26383327    -0.13100
C1725       C  0.78152734  0.70181413  0.35172521    -0.14700
C1726       C  0.80471077  0.70996196  0.34785542    -0.29900
H1727       H  0.77337342  0.68958404  0.36116435     0.14300
H1728       H  0.81263433  0.72116879  0.33797207     0.14900
C1729       C  0.53812415  0.62441779  0.36960203    -0.16800
C1730       C  0.55735510  0.63774378  0.36351145     0.07300
C1731       C  0.58009618  0.65294070  0.35656117     0.09100
C1732       C  0.59986269  0.66530479  0.35085556    -0.17600
C1733       C  0.37834205  0.52312676  0.41464699    -0.11600
C1734       C  0.35821738  0.51277642  0.42004477    -0.13100
C1735       C  0.09988070  0.63528170  0.34248550    -0.16800
C1736       C  0.10696120  0.62425664  0.34942506     0.07300
C1737       C  0.11456826  0.61148732  0.35828907     0.09100
C1738       C  0.12049714  0.60041659  0.36618163    -0.17600
C1739       C  0.18123989  0.62163788  0.43191699    -0.11600
C1740       C  0.19309125  0.64052543  0.43834898    -0.13100
C1741       C  0.17364239  0.51119807  0.42548300    -0.11600
C1742       C  0.18492528  0.50251239  0.43014995    -0.13100
C1743       C  0.48183452  0.63164478  0.43236759    -0.11600
C1744       C  0.48572121  0.64765355  0.44073371    -0.13100
C1745       C  0.49468359  0.81798131  0.43729954    -0.11600
C1746       C  0.48947422  0.83054162  0.43034063    -0.13100
C1747       C  0.38166947  0.82959895  0.42956471    -0.11600
C1748       C  0.36194382  0.81714803  0.43542558    -0.13100
C1749       C  0.25179802  0.90662637  0.26876235    -0.11600
C1750       C  0.23669453  0.89281806  0.26014398    -0.13100
C1751       C  0.35504177  0.07616385  0.33135009    -0.14700
C1752       C  0.37012191  0.08815360  0.34263429    -0.29900
H1753       H  0.34425342  0.08273968  0.32633917     0.14300
H1754       H  0.38058780  0.08131837  0.34774951     0.14900
C1755       C  0.42395910  0.90872108  0.37043557    -0.16800
C1756       C  0.41493549  0.91693739  0.36251518     0.07300
C1757       C  0.40402875  0.92627516  0.35331744     0.09100
C1758       C  0.39439691  0.93418988  0.34569229    -0.17600
C1759       C  0.25669015  0.32131197  0.27055683    -0.11600
C1760       C  0.24030807  0.31923435  0.26290785    -0.13100
C1761       C  0.34988129  0.24642963  0.34226095    -0.14700
C1762       C  0.35963983  0.26972245  0.34580165    -0.29900
H1763       H  0.33791244  0.23902994  0.33275703     0.14300
H1764       H  0.37250896  0.27734741  0.35486470     0.14900
C1765       C  0.41369924  0.45591438  0.33037178    -0.16800
C1766       C  0.42256390  0.47468518  0.33700450     0.07300
C1767       C  0.43151744  0.49534097  0.34596579     0.09100
C1768       C  0.43783841  0.51167423  0.35456735    -0.17600
C1769       C  0.71662447  0.90994401  0.27318463    -0.11600
C1770       C  0.72016557  0.89857448  0.26408423    -0.13100
C1771       C  0.78144983  0.06256350  0.34841932    -0.14700
C1772       C  0.77858577  0.07208135  0.36084482    -0.29900
H1773       H  0.79884145  0.07158894  0.34256517     0.14300
H1774       H  0.76136357  0.06264938  0.36686883     0.14900
C1775       C  0.58751180  0.92628079  0.34572572    -0.16800
C1776       C  0.56859043  0.91946403  0.35230480     0.07300
C1777       C  0.54738258  0.91189021  0.36097564     0.09100
C1778       C  0.52982832  0.90521785  0.36895064    -0.17600
C1779       C  0.13178537  0.31395395  0.27605574    -0.11600
C1780       C  0.14551099  0.31336080  0.26719868    -0.13100
C1781       C  0.94856090  0.25238187  0.35007781    -0.14700
C1782       C  0.96015857  0.24748484  0.33959060    -0.29900
H1783       H  0.95608840  0.27082749  0.35370114     0.14300
H1784       H  0.95333309  0.22892730  0.33644001     0.14900
C1785       C  0.09442264  0.43763297  0.33492520    -0.16800
C1786       C  0.10017526  0.45541206  0.34204610     0.07300
C1787       C  0.10659525  0.47485562  0.35162182     0.09100
C1788       C  0.11246796  0.49061712  0.36055921    -0.17600
C1789       C  0.20802661  0.79293247  0.94504535    -0.14700
C1790       C  0.23122443  0.80352941  0.94965184    -0.29900
H1791       H  0.19426686  0.77531471  0.94945235     0.14300
H1792       H  0.24488384  0.82133050  0.94544445     0.14900
C1793       C  0.25010443  0.93908660  0.84565695    -0.14700
C1794       C  0.25360278  0.93034199  0.85839591    -0.29900
H1795       H  0.23235933  0.92974666  0.84039088     0.14300
H1796       H  0.27131273  0.93982459  0.86368175     0.14900
C1797       C  0.06194535  0.76474280  0.85252930    -0.14700
C1798       C  0.07044368  0.76204109  0.86553589    -0.29900
H1799       H  0.07154755  0.78191198  0.84656861     0.14300
H1800       H  0.06027457  0.74509539  0.87168026     0.14900
C1801       C  0.44344928  0.20678032  0.02563942    -0.14700
C1802       C  0.43640627  0.21950914  0.03354212    -0.29900
H1803       H  0.43898483  0.18906859  0.02957372     0.14300
H1804       H  0.44100879  0.23730097  0.02967961     0.14900
C1805       C  0.53442807  0.35627131  0.92463676    -0.11600
C1806       C  0.52739083  0.33775794  0.93159091    -0.13100
C1807       C  0.64190345  0.46804339  0.92744332    -0.11600
C1808       C  0.66060567  0.47665379  0.93433711    -0.13100
C1809       C  0.79995546  0.59286947  0.01520724    -0.14700
C1810       C  0.81961408  0.59818476  0.02330751    -0.29900
H1811       H  0.78841296  0.59967671  0.01839971     0.14300
H1812       H  0.83075330  0.59082904  0.02032895     0.14900
C1813       C  0.93370001  0.57054347  0.84408384    -0.16800
C1814       C  0.92610414  0.55106322  0.84988498     0.07300
C1815       C  0.91737256  0.52908218  0.85770142     0.09100
C1816       C  0.91000599  0.51118921  0.86531635    -0.17600
C1817       C  0.84422143  0.47747504  0.93031258    -0.11600
C1818       C  0.83265331  0.48448580  0.93666992    -0.13100
C1819       C  0.61313317  0.80836756  0.93569274    -0.14700
C1820       C  0.62283873  0.79634047  0.92979748    -0.29900
H1821       H  0.61768732  0.82577074  0.93112345     0.14300
H1822       H  0.61891777  0.77930764  0.93465495     0.14900
C1823       C  0.71565003  0.74596485  0.84748260    -0.14700
C1824       C  0.72352694  0.76831649  0.84225828    -0.29900
H1825       H  0.70570464  0.73992193  0.85792910     0.14300
H1826       H  0.73283260  0.77414449  0.83159134     0.14900
C1827       C  0.65816141  0.55759795  0.83878737    -0.16800
C1828       C  0.64470922  0.53816896  0.84458653     0.07300
C1829       C  0.62910334  0.51644000  0.85245974     0.09100
C1830       C  0.61651587  0.49877880  0.86011310    -0.17600
C1831       C  0.69091238  0.93670600  0.84169052    -0.14700
C1832       C  0.70369696  0.92651229  0.83801904    -0.29900
H1833       H  0.67660535  0.92828788  0.85006725     0.14300
H1834       H  0.71741661  0.93440074  0.82927317     0.14900
C1835       C  0.83175080  0.35119194  0.93738839    -0.11600
C1836       C  0.84330987  0.37043118  0.93103634    -0.13100
C1837       C  0.80359569  0.20826667  0.01625894    -0.14700
C1838       C  0.82476610  0.22254344  0.02341293    -0.29900
H1839       H  0.79212140  0.18936364  0.01945187     0.14300
H1840       H  0.83618982  0.24147999  0.02027778     0.14900
C1841       C  0.44376386  0.07467825  0.83816662    -0.16800
C1842       C  0.46323942  0.08261108  0.84410193     0.07300
C1843       C  0.48510327  0.09159034  0.85211087     0.09100
C1844       C  0.50298687  0.09912551  0.85973240    -0.17600
C1845       C  0.53734876  0.16268528  0.92519705    -0.11600
C1846       C  0.52886847  0.17232240  0.93215363    -0.13100
C1847       C  0.60778836  0.09483904  0.86110544    -0.16800
C1848       C  0.61722825  0.08706856  0.85329368     0.07300
C1849       C  0.62946571  0.07864968  0.84469121     0.09100
C1850       C  0.64072673  0.07153309  0.83811553    -0.17600
C1851       C  0.66566290  0.17604004  0.93058951    -0.11600
C1852       C  0.64659963  0.16567286  0.92391460    -0.13100
C1853       C  0.23354639  0.41767078  0.93461853    -0.14700
C1854       C  0.22302560  0.42819814  0.94147110    -0.29900
H1855       H  0.25100994  0.42099137  0.93843780     0.14300
H1856       H  0.20543497  0.42471404  0.93777469     0.14900
C1857       C  0.08786894  0.31486479  0.85204619    -0.14700
C1858       C  0.07664356  0.32693434  0.85501471    -0.29900
H1859       H  0.08042001  0.30074275  0.84378811     0.14300
H1860       H  0.08438915  0.34134420  0.86307600     0.14900
C1861       C  0.91085380  0.40516239  0.86674523    -0.16800
C1862       C  0.91845476  0.39500514  0.85946426     0.07300
C1863       C  0.92754518  0.38228959  0.85205395     0.09100
C1864       C  0.93561283  0.37098960  0.84666893    -0.17600
C1865       C  0.25348327  0.29428364  0.84412707    -0.14700
C1866       C  0.25781640  0.30955025  0.85530187    -0.29900
H1867       H  0.23526302  0.28352049  0.83958018     0.14300
H1868       H  0.27587693  0.31957457  0.86013278     0.14900
C1869       C  0.44728844  0.35929287  0.83566078    -0.16800
C1870       C  0.46622368  0.36991603  0.84234425     0.07300
C1871       C  0.48729771  0.38153859  0.85122364     0.09100
C1872       C  0.50458614  0.39097680  0.85940825    -0.17600
C1873       C  0.32062841  0.10428746  0.75438837    -0.11600
C1874       C  0.32108598  0.09003032  0.76290694    -0.13100
C1875       C  0.32051700  0.19411429  0.75932592    -0.11600
C1876       C  0.32097664  0.20751018  0.76865815    -0.13100
C1877       C  0.81578744  0.11802279  0.76674141    -0.11600
C1878       C  0.80023919  0.10386915  0.77524046    -0.13100
C1879       C  0.91838873  0.22435576  0.78015942    -0.11600
C1880       C  0.90612846  0.21090583  0.77037131    -0.13100
C1881       C  0.81714054  0.69673828  0.75451703    -0.11600
C1882       C  0.80089636  0.69184638  0.76324386    -0.13100
C1883       C  0.90682178  0.69805080  0.75933637    -0.11600
C1884       C  0.91739851  0.69445395  0.76904206    -0.13100
C1885       C  0.57239332  0.79314962  0.54137978    -0.14700
C1886       C  0.56402799  0.77162535  0.53495710    -0.29900
H1887       H  0.56806286  0.80590411  0.53672473     0.14300
H1888       H  0.56798171  0.75871177  0.53979311     0.14900
C1889       C  0.82027266  0.71610787  0.68303314    -0.11600
C1890       C  0.83422812  0.71736680  0.69237520    -0.13100
C1891       C  0.70221992  0.76705297  0.62620424    -0.14700
C1892       C  0.68386349  0.76163636  0.61685789    -0.29900
H1893       H  0.71219203  0.78469465  0.63133497     0.14300
H1894       H  0.67433042  0.74418708  0.61150257     0.14900
C1895       C  0.80080447  0.11256701  0.69566993    -0.11600
C1896       C  0.81582352  0.12624309  0.70441711    -0.13100
C1897       C  0.67091661  0.92625891  0.62742880    -0.14700
C1898       C  0.68637834  0.93743055  0.63869823    -0.29900
H1899       H  0.66131628  0.93418095  0.62250055     0.14300
H1900       H  0.69650520  0.92992072  0.64345521     0.14900
C1901       C  0.85387855  0.36384926  0.53231880    -0.11600
C1902       C  0.86383711  0.38258733  0.53900264    -0.13100
C1903       C  0.83430922  0.23209793  0.44870959    -0.14700
C1904       C  0.82127562  0.21026390  0.44243068    -0.29900
H1905       H  0.85222056  0.24546979  0.44435687     0.14300
H1906       H  0.80349709  0.19685461  0.44690466     0.14900
C1907       C  0.84497659  0.49331460  0.53720672    -0.11600
C1908       C  0.85442266  0.48364193  0.54319125    -0.13100
C1909       C  0.83405069  0.60838631  0.45269460    -0.14700
C1910       C  0.82270578  0.61704158  0.44463305    -0.29900
H1911       H  0.85209893  0.61253072  0.44944509     0.14300
H1912       H  0.80478671  0.61318182  0.44797231     0.14900
C1913       C  0.62225552  0.52485645  0.59805256    -0.16800
C1914       C  0.63374458  0.54264528  0.60549426     0.07300
C1915       C  0.64876206  0.56418820  0.61328937     0.09100
C1916       C  0.66215911  0.58332293  0.61908843    -0.17600
C1917       C  0.66171262  0.49247915  0.53753397    -0.11600
C1918       C  0.68169815  0.50141349  0.53193050    -0.13100
C1919       C  0.54844938  0.36000789  0.53275977    -0.11600
C1920       C  0.55569750  0.37877786  0.53919156    -0.13100
C1921       C  0.45018621  0.23304518  0.44223961    -0.14700
C1922       C  0.44459042  0.21355847  0.43411414    -0.29900
H1923       H  0.44486076  0.24550801  0.43843114     0.14300
H1924       H  0.45020868  0.20130341  0.43785632     0.14900
C1925       C  0.62642777  0.10906428  0.59483866    -0.16800
C1926       C  0.63577149  0.10110035  0.60274999     0.07300
C1927       C  0.64728549  0.09195711  0.61165537     0.09100
C1928       C  0.65737082  0.08418815  0.61903549    -0.17600
C1929       C  0.66522859  0.17986759  0.53142891    -0.11600
C1930       C  0.68470416  0.19127166  0.52523500    -0.13100
C1931       C  0.55151262  0.19470063  0.52563987    -0.11600
C1932       C  0.55917058  0.18315179  0.53143306    -0.13100
C1933       C  0.21949302  0.81013024  0.51013668    -0.14700
C1934       C  0.20820603  0.78696909  0.50590233    -0.29900
H1935       H  0.23752324  0.82313898  0.50578079     0.14300
H1936       H  0.19014612  0.77392198  0.51021065     0.14900
C1937       C  0.32934867  0.11835912  0.69106572    -0.11600
C1938       C  0.33155911  0.10774241  0.68094236    -0.13100
C1939       C  0.26421186  0.95855559  0.60253347    -0.14700
C1940       C  0.26758888  0.94809749  0.59078253    -0.29900
H1941       H  0.24597510  0.95178421  0.60688202     0.14300
H1942       H  0.28569537  0.95551334  0.58603950     0.14900
C1943       C  0.45938368  0.08663694  0.61400812    -0.16800
C1944       C  0.47904257  0.09426451  0.60832245     0.07300
C1945       C  0.50120529  0.10287397  0.60067156     0.09100
C1946       C  0.51943725  0.11024336  0.59333244    -0.17600
C1947       C  0.93825745  0.71777959  0.68790661    -0.11600
C1948       C  0.92482324  0.71858131  0.69691960    -0.13100
C1949       C  0.06641962  0.76520496  0.59224242    -0.14700
C1950       C  0.08335588  0.78791812  0.59588702    -0.29900
H1951       H  0.06917930  0.75707622  0.58256810     0.14300
H1952       H  0.08084271  0.79596909  0.60569972     0.14900
C1953       C  0.94363464  0.58033810  0.62251830    -0.16800
C1954       C  0.93751851  0.56025991  0.61861160     0.07300
C1955       C  0.93045845  0.53762245  0.61249832     0.09100
C1956       C  0.92379490  0.51915450  0.60589761    -0.17600
C1957       C  0.23117071  0.40329368  0.50872273    -0.14700
C1958       C  0.21094571  0.39611966  0.51683993    -0.29900
H1959       H  0.24477820  0.39941967  0.51250489     0.14300
H1960       H  0.19730390  0.39987119  0.51298214     0.14900
C1961       C  0.92060608  0.23659416  0.69829071    -0.11600
C1962       C  0.90708260  0.22106750  0.70701875    -0.13100
C1963       C  0.08360905  0.31850974  0.62590502    -0.14700
C1964       C  0.09304535  0.32926408  0.61272498    -0.29900
H1965       H  0.09122596  0.30943171  0.63189673     0.14300
H1966       H  0.08451490  0.33720054  0.60647973     0.14900
C1967       C  0.96094710  0.38654050  0.62317837    -0.16800
C1968       C  0.95422998  0.39834213  0.61674237     0.07300
C1969       C  0.94532560  0.41079588  0.60866715     0.09100
C1970       C  0.93663824  0.42008155  0.60140649    -0.17600
C1971       C  0.33218671  0.22182936  0.68800689    -0.11600
C1972       C  0.32977853  0.20609231  0.69637164    -0.13100
C1973       C  0.26685612  0.33096613  0.61214314    -0.14700
C1974       C  0.26393207  0.31867274  0.62481663    -0.29900
H1975       H  0.28458532  0.34062521  0.60667785     0.14300
H1976       H  0.24596088  0.30778222  0.62987301     0.14900
C1977       C  0.45703633  0.38303846  0.62355784    -0.16800
C1978       C  0.47538372  0.39313170  0.61609181     0.07300
C1979       C  0.49634528  0.40411768  0.60688234     0.09100
C1980       C  0.51410739  0.41339299  0.59889164    -0.17600
loop_ 
_geom_bond_atom_site_label_1 
_geom_bond_atom_site_label_2 
_geom_bond_distance 
_geom_bond_site_symmetry_2 
_ccdc_geom_bond_type 
N1            N2   1.323       .  A
N1            C5   1.346       .  A
N1           Cu9   2.075       .  S
N2            C3   1.345       .  A
N2           Cu8   2.073       .  S
C3            C4   1.379       .  A
C3            H6   1.082       .  S
C4            C5   1.380       .  A
C4         C1971   1.438       .  S
C5            H7   1.082       .  S
Cu8          N11   2.072       .  S
Cu9          N19   2.074       .  S
Cu10         N12   2.071       .  S
Cu10         N18   2.071       .  S
N11          N12   1.322       .  A
N11          C15   1.345       .  A
N12          C13   1.346       .  A
C13          C14   1.380       .  A
C13          H16   1.082       .  S
C14          C15   1.379       .  A
C14        C1977   1.436       .  S
C15          H17   1.082       .  S
N18          N19   1.322       .  A
N18          C22   1.343       .  A
N19          C20   1.346       .  A
C20          C21   1.382       .  A
C20          H23   1.082       .  S
C21          C22   1.385       .  A
C21        C1974   1.477       .  S
C22          H24   1.082       .  S
N25          N26   1.322       .  A
N25          C29   1.345       .  A
N25         Cu33   2.066   1_655  S
N26          C27   1.346       .  A
N26         Cu32   2.074       .  S
C27          C28   1.380       .  A
C27          H30   1.082       .  S
C28          C29   1.379       .  A
C28        C1967   1.436       .  S
C29          H31   1.082   1_655  S
Cu32         N35   2.075       .  S
Cu33         N43   2.066       .  S
Cu34         N36   2.078       .  S
Cu34         N42   2.077   1_655  S
N35          N36   1.324       .  A
N35          C39   1.346       .  A
N36          C37   1.345       .  A
C37          C38   1.379       .  A
C37          H40   1.082       .  S
C38          C39   1.379       .  A
C38        C1961   1.437       .  S
C39          H41   1.082       .  S
N42          N43   1.321       .  A
N42          C46   1.348       .  A
N43          C44   1.340       .  A
C44          C45   1.385       .  A
C44          H47   1.081       .  S
C45          C46   1.385       .  A
C45        C1963   1.479       .  S
C46          H48   1.082       .  S
N49          N50   1.324       .  A
N49          C53   1.347       .  A
N49         Cu57   2.083       .  S
N50          C51   1.342       .  A
N50         Cu56   2.068       .  S
C51          C52   1.378       .  A
C51          H54   1.082       .  S
C52          C53   1.386       .  A
C52        C1973   1.473       .  S
C53          H55   1.082       .  S
Cu56         N59   2.067       .  S
Cu57         N67   2.083       .  S
Cu58         N60   2.058       .  S
Cu58         N66   2.059       .  S
N59          N60   1.320       .  A
N59          C63   1.346       .  A
N60          C61   1.341       .  A
C61          C62   1.379       .  A
C61          H64   1.082       .  S
C62          C63   1.387       .  A
C62        C1958   1.471       .  S
C63          H65   1.081       .  S
N66          N67   1.322       .  A
N66          C70   1.340       .  A
N67          C68   1.349       .  A
C68          C69   1.387       .  A
C68          H71   1.082       .  S
C69          C70   1.377       .  A
C69        C1964   1.472       .  S
C70          H72   1.082       .  S
N73          N74   1.321       .  A
N73          C77   1.347       .  A
N73         Cu81   2.074       .  S
N74          C75   1.342       .  A
N74         Cu80   2.056       .  S
C75          C76   1.377       .  A
C75          H78   1.082       .  S
C76          C77   1.382       .  A
C76        C1953   1.435       .  S
C77          H79   1.082       .  S
Cu80         N83   2.056   1_655  S
Cu81         N91   2.075       .  S
Cu82         N84   2.087   1_655  S
Cu82         N90   2.088       .  S
N83          N84   1.322       .  A
N83          C87   1.340       .  A
N84          C85   1.349       .  A
C85          C86   1.390       .  A
C85          H88   1.082       .  S
C86          C87   1.376       .  A
C86        C1949   1.474       .  S
C87          H89   1.082       .  S
N90          N91   1.325       .  A
N90          C94   1.349       .  A
N91          C92   1.343       .  A
C92          C93   1.377       .  A
C92          H95   1.082       .  S
C93          C94   1.382       .  A
C93        C1947   1.438       .  S
C94          H96   1.082       .  S
N97          N98   1.321       .  A
N97         C101   1.344       .  A
N97        Cu105   2.060       .  S
N98          C99   1.343       .  A
N98        Cu104   2.062       .  S
C99         C100   1.377       .  A
C99         H102   1.082       .  S
C100        C101   1.378       .  A
C100       C1943   1.430       .  S
C101        H103   1.082       .  S
Cu104       N107   2.063       .  S
Cu105       N115   2.061       .  S
Cu106       N108   2.064       .  S
Cu106       N114   2.065       .  S
N107        N108   1.322       .  A
N107        C111   1.342   1_545  A
N108        C109   1.344   1_545  A
C109        C110   1.380       .  A
C109        H112   1.082       .  S
C110        C111   1.384       .  A
C110       C1939   1.471       .  S
C111        H113   1.081       .  S
N114        N115   1.323       .  A
N114        C118   1.344       .  A
N115        C116   1.342       .  A
C116        C117   1.376       .  A
C116        H119   1.082       .  S
C117        C118   1.378       .  A
C117       C1938   1.429       .  S
C118        H120   1.082       .  S
N121        N122   1.323       .  A
N121        C125   1.346       .  A
N121       Cu129   2.090       .  S
N122        C123   1.344       .  A
N122       Cu128   2.061       .  S
C123        C124   1.379       .  A
C123        H126   1.082       .  S
C124        C125   1.389       .  A
C124       C1950   1.478       .  S
C125        H127   1.081       .  S
Cu128       N131   2.060       .  S
Cu129       N139   2.089       .  S
Cu130       N132   2.060       .  S
Cu130       N138   2.060       .  S
N131        N132   1.320       .  A
N131        C135   1.343       .  A
N132        C133   1.343       .  A
C133        C134   1.380       .  A
C133        H136   1.082       .  S
C134        C135   1.385       .  A
C134       C1940   1.470       .  S
C135        H137   1.081       .  S
N138        N139   1.322       .  A
N138        C142   1.342       .  A
N139        C140   1.349       .  A
C140        C141   1.390       .  A
C140        H143   1.081       .  S
C141        C142   1.378       .  A
C141       C1933   1.477       .  S
C142        H144   1.082       .  S
N145        C150   1.356       .  A
N145        C149   1.352       .  A
N145        H177   1.038       .  S
N146        C153   1.351       .  A
N146        C154   1.353       .  A
N147        C152   1.352       .  A
N147        C151   1.354       .  A
N147        H178   1.037       .  S
N148        C155   1.352       .  A
N148        C156   1.350       .  A
C149        C157   1.389       .  A
C149        C165   1.414       .  A
C150        C166   1.414       .  A
C150        C158   1.387       .  A
C151        C159   1.387       .  A
C151        C168   1.414       .  A
C152        C167   1.413       .  A
C152        C160   1.388       .  A
C153        C165   1.412       .  A
C153        C161   1.388       .  A
C154        C168   1.413       .  A
C154        C162   1.386       .  A
C155        C163   1.386       .  A
C155        C166   1.410       .  A
C156        C164   1.388       .  A
C156        C167   1.412       .  A
C157        C158   1.375       .  A
C157        H169   1.082       .  S
C158        H170   1.082       .  S
C159        C160   1.376       .  A
C159        H171   1.082       .  S
C160        H172   1.082       .  S
C161        C162   1.372       .  A
C161        H173   1.082       .  S
C162        H174   1.082       .  S
C163        C164   1.371       .  A
C163        H175   1.082       .  S
C164        H176   1.082       .  S
C165       C1929   1.445       .  S
C166       C1932   1.455       .  S
C167       C1946   1.445       .  S
C168       C1925   1.454       .  S
N179        N180   1.323       .  A
N179        C183   1.347       .  A
N179       Cu187   2.083       .  S
N180        C181   1.345       .  A
N180       Cu186   2.072       .  S
C181        C182   1.379       .  A
C181        H184   1.082       .  S
C182        C183   1.382       .  A
C182       C1919   1.439       .  S
C183        H185   1.082       .  S
Cu186       N189   2.072       .  S
Cu187       N197   2.083       .  S
Cu188       N190   2.085       .  S
Cu188       N196   2.085       .  S
N189        N190   1.323       .  A
N189        C193   1.345       .  A
N190        C191   1.348       .  A
C191        C192   1.383       .  A
C191        H194   1.082       .  S
C192        C193   1.379       .  A
C192       C1931   1.441       .  S
C193        H195   1.082       .  S
N196        N197   1.323       .  A
N196        C200   1.346       .  A
N197        C198   1.347       .  A
C198        C199   1.384       .  A
C198        H201   1.082       .  S
C199        C200   1.388       .  A
C199       C1921   1.484       .  S
C200        H202   1.081       .  S
N203        C208   1.354       .  A
N203        C207   1.354       .  A
N203        H235   1.038       .  S
N204        C211   1.351       .  A
N204        C212   1.350       .  A
N205        C210   1.352       .  A
N205        C209   1.353       .  A
N205        H236   1.038       .  S
N206        C213   1.352       .  A
N206        C214   1.352       .  A
C207        C215   1.388       .  A
C207        C223   1.415       .  A
C208        C224   1.415       .  A
C208        C216   1.388       .  A
C209        C217   1.387       .  A
C209        C226   1.413       .  A
C210        C225   1.413       .  A
C210        C218   1.388       .  A
C211        C223   1.410       .  A
C211        C219   1.387       .  A
C212        C226   1.411       .  A
C212        C220   1.387       .  A
C213        C221   1.387       .  A
C213        C224   1.413       .  A
C214        C222   1.387       .  A
C214        C225   1.413       .  A
C215        C216   1.376       .  A
C215        H227   1.082       .  S
C216        H228   1.082       .  S
C217        C218   1.375       .  A
C217        H229   1.082       .  S
C218        H230   1.082       .  S
C219        C220   1.372       .  A
C219        H231   1.082       .  S
C220        H232   1.082       .  S
C221        C222   1.374       .  A
C221        H233   1.082       .  S
C222        H234   1.082       .  S
C223       C1917   1.451       .  S
C224       C1920   1.452       .  S
C225       C1980   1.450       .  S
C226       C1913   1.449       .  S
N237        N238   1.323       .  A
N237        C241   1.348       .  A
N237       Cu245   2.080       .  S
N238        C239   1.343       .  A
N238       Cu244   2.066       .  S
C239        C240   1.377       .  A
C239        H242   1.082       .  S
C240        C241   1.382       .  A
C240       C1918   1.437       .  S
C241        H243   1.082       .  S
Cu244       N247   2.066       .  S
Cu245       N255   2.080       .  S
Cu246       N248   2.069       .  S
Cu246       N254   2.070       .  S
N247        N248   1.322       .  A
N247        C251   1.344       .  A
N248        C249   1.346       .  A
C249        C250   1.380       .  A
C249        H252   1.082       .  S
C250        C251   1.378       .  A
C250       C1907   1.435       .  S
C251        H253   1.082       .  S
N254        N255   1.323       .  A
N254        C258   1.343       .  A
N255        C256   1.346       .  A
C256        C257   1.386       .  A
C256        H259   1.081       .  S
C257        C258   1.380       .  A
C257       C1909   1.475       .  S
C258        H260   1.082       .  S
N261        N262   1.321       .  A
N261        C265   1.346       .  A
N261       Cu269   2.064       .  S
N262        C263   1.341       .  A
N262       Cu268   2.061       .  S
C263        C264   1.376       .  A
C263        H266   1.082       .  S
C264        C265   1.380       .  A
C264       C1930   1.430       .  S
C265        H267   1.082       .  S
Cu268       N271   2.062       .  S
Cu269       N279   2.065       .  S
Cu270       N272   2.076       .  S
Cu270       N278   2.077       .  S
N271        N272   1.323       .  A
N271        C275   1.343       .  A
N272        C273   1.347       .  A
C273        C274   1.380       .  A
C273        H276   1.082       .  S
C274        C275   1.377       .  A
C274       C1901   1.435       .  S
C275        H277   1.082       .  S
N278        N279   1.323       .  A
N278        C282   1.346       .  A
N279        C280   1.341       .  A
C280        C281   1.384       .  A
C280        H283   1.081       .  S
C281        C282   1.383       .  A
C281       C1903   1.477       .  S
C282        H284   1.082       .  S
N285        C290   1.352       .  A
N285        C289   1.353       .  A
N285        H317   1.037       .  S
N286        C293   1.350       .  A
N286        C294   1.350       .  A
N287        C292   1.352       .  A
N287        C291   1.353       .  A
N287        H318   1.037       .  S
N288        C295   1.352       .  A
N288        C296   1.352       .  A
C289        C297   1.387       .  A
C289        C305   1.414       .  A
C290        C306   1.413       .  A
C290        C298   1.388       .  A
C291        C299   1.387       .  A
C291        C308   1.413       .  A
C292        C307   1.413       .  A
C292        C300   1.387       .  A
C293        C305   1.410       .  A
C293        C301   1.387       .  A
C294        C308   1.410       .  A
C294        C302   1.387       .  A
C295        C303   1.387       .  A
C295        C306   1.413       .  A
C296        C304   1.387       .  A
C296        C307   1.413       .  A
C297        C298   1.378       .  A
C297        H309   1.082       .  S
C298        H310   1.082       .  S
C299        C300   1.377       .  A
C299        H311   1.082       .  S
C300        H312   1.082       .  S
C301        C302   1.370       .  A
C301        H313   1.082       .  S
C302        H314   1.082       .  S
C303        C304   1.371       .  A
C303        H315   1.082       .  S
C304        H316   1.082       .  S
C305       C1908   1.448       .  S
C306       C1902   1.448       .  S
C307       C1970   1.449       .  S
C308       C1956   1.449       .  S
N319        N320   1.321       .  A
N319        C323   1.345       .  A
N319       Cu327   2.065       .  S
N320        C321   1.346       .  A
N320       Cu326   2.075       .  S
C321        C322   1.382       .  A
C321        H324   1.082       .  S
C322        C323   1.380       .  A
C322       C1928   1.440       .  S
C323        H325   1.082       .  S
Cu326       N329   2.076       .  S
Cu327       N337   2.065   1_545  S
Cu328       N330   2.088       .  S
Cu328       N336   2.087   1_545  S
N329        N330   1.325       .  A
N329        C333   1.345       .  A
N330        C331   1.349       .  A
C331        C332   1.383       .  A
C331        H334   1.082       .  S
C332        C333   1.378       .  A
C332       C1895   1.441       .  S
C333        H335   1.082       .  S
N336        N337   1.322       .  A
N336        C340   1.349       .  A
N337        C338   1.340       .  A
C338        C339   1.384       .  A
C338        H341   1.081       .  S
C339        C340   1.386       .  A
C339       C1898   1.482       .  S
C340        H342   1.082       .  S
N343        N344   1.325       .  A
N343        C347   1.346       .  A
N343       Cu351   2.074       .  S
N344        C345   1.344       .  A
N344       Cu350   2.077       .  S
C345        C346   1.378       .  A
C345        H348   1.082       .  S
C346        C347   1.378       .  A
C346       C1889   1.434       .  S
C347        H349   1.082       .  S
Cu350       N353   2.076       .  S
Cu351       N361   2.073       .  S
Cu352       N354   2.060       .  S
Cu352       N360   2.061       .  S
N353        N354   1.322       .  A
N353        C357   1.347       .  A
N354        C355   1.342       .  A
C355        C356   1.376       .  A
C355        H358   1.082       .  S
C356        C357   1.382       .  A
C356       C1916   1.435       .  S
C357        H359   1.082       .  S
N360        N361   1.320       .  A
N360        C364   1.341       .  A
N361        C362   1.347       .  A
C362        C363   1.385       .  A
C362        H365   1.082       .  S
C363        C364   1.386       .  A
C363       C1891   1.479       .  S
C364        H366   1.081       .  S
N367        N368   1.323       .  A
N367        C371   1.349       .  A
N367       Cu375   2.085       .  S
N368        C369   1.340       .  A
N368       Cu374   2.059       .  S
C369        C370   1.377       .  A
C369        H372   1.082       .  S
C370        C371   1.388       .  A
C370       C1892   1.473       .  S
C371        H373   1.082       .  S
Cu374       N377   2.058       .  S
Cu375       N385   2.085       .  S
Cu376       N378   2.067       .  S
Cu376       N384   2.069       .  S
N377        N378   1.319       .  A
N377        C381   1.342       .  A
N378        C379   1.345       .  A
C379        C380   1.384       .  A
C379        H382   1.082       .  S
C380        C381   1.385       .  A
C380       C1885   1.476       .  S
C381        H383   1.081       .  S
N384        N385   1.324       .  A
N384        C388   1.340       .  A
N385        C386   1.349       .  A
C386        C387   1.387       .  A
C386        H389   1.082       .  S
C387        C388   1.378       .  A
C387       C1897   1.473       .  S
C388        H390   1.082       .  S
O391       Cu399   2.020       .  S
O391        C401   1.278       .  A
O392       Cu399   2.021       .  S
O392        C402   1.278       .  A
O393       Cu399   2.014       .  S
O393        C403   1.277       .  A
O394       Cu399   2.011       .  S
O394        C404   1.277       .  A
O395       Cu400   1.998       .  S
O395        C404   1.275       .  A
O396       Cu400   1.996       .  S
O396        C403   1.275       .  A
O397       Cu400   2.002       .  S
O397        C402   1.276       .  A
O398       Cu400   2.003       .  S
O398        C401   1.275       .  A
Cu399      Cu400   2.380       .  S
C401       C1881   1.436       .  S
C402       C1948   1.436       .  S
C403       C1890   1.431       .  S
C404       C1883   1.431       .  S
O405       Cu413   2.011       .  S
O405        C415   1.277       .  A
O406       Cu413   2.014       .  S
O406        C416   1.277       .  A
O407       Cu413   2.000       .  S
O407        C417   1.275       .  A
O408       Cu413   2.005       .  S
O408        C418   1.276       .  A
O409       Cu414   2.015       .  S
O409        C418   1.277       .  A
O410       Cu414   2.014       .  S
O410        C417   1.277       .  A
O411       Cu414   2.015       .  S
O411        C416   1.277       .  A
O412       Cu414   2.015       .  S
O412        C415   1.277       .  A
Cu413      Cu414   2.379       .  S
C415       C1880   1.437       .  S
C416       C1896   1.439       .  S
C417       C1877   1.433       .  S
C418       C1962   1.435       .  S
O419       Cu427   2.007       .  S
O419        C429   1.277       .  A
O420       Cu427   2.001       .  S
O420        C430   1.276       .  A
O421       Cu427   2.009       .  S
O421        C431   1.276       .  A
O422       Cu427   2.014       .  S
O422        C432   1.277       .  A
O423       Cu428   2.021       .  S
O423        C432   1.278       .  A
O424       Cu428   2.017       .  S
O424        C431   1.277       .  A
O425       Cu428   2.002       .  S
O425        C430   1.275       .  A
O426       Cu428   2.008       .  S
O426        C429   1.276       .  A
Cu427      Cu428   2.380       .  S
C429       C1875   1.434       .  S
C430       C1937   1.427       .  S
C431       C1972   1.437       .  S
C432       C1873   1.442       .  S
N433        N434   1.324       .  A
N433        C437   1.349       .  A
N433       Cu441   2.087       .  S
N434        C435   1.342       .  A
N434       Cu440   2.066       .  S
C435        C436   1.375       .  A
C435        H438   1.082       .  S
C436        C437   1.382       .  A
C436       C1876   1.436       .  S
C437        H439   1.082       .  S
Cu440       N443   2.066       .  S
Cu441       N451   2.086       .  S
Cu442       N444   2.068       .  S
Cu442       N450   2.069       .  S
N443        N444   1.321       .  A
N443        C447   1.346       .  A
N444        C445   1.344       .  A
C445        C446   1.379       .  A
C445        H448   1.082       .  S
C446        C447   1.381       .  A
C446       C1869   1.436       .  S
C447        H449   1.082       .  S
N450        N451   1.322       .  A
N450        C454   1.342       .  A
N451        C452   1.349       .  A
C452        C453   1.386       .  A
C452        H455   1.082       .  S
C453        C454   1.385       .  A
C453       C1865   1.482       .  S
C454        H456   1.081       .  S
N457        N458   1.322       .  A
N457        C461   1.344       .  A
N457       Cu465   2.070       .  S
N458        C459   1.346       .  A
N458       Cu464   2.068       .  S
C459        C460   1.380       .  A
C459        H462   1.082       .  S
C460        C461   1.379       .  A
C460       C1864   1.436       .  S
C461        H463   1.082       .  S
Cu464       N467   2.069       .  S
Cu465       N475   2.071   1_655  S
Cu466       N468   2.086       .  S
Cu466       N474   2.086   1_655  S
N467        N468   1.324       .  A
N467        C471   1.343       .  A
N468        C469   1.349       .  A
C469        C470   1.383       .  A
C469        H472   1.082       .  S
C470        C471   1.377       .  A
C470       C1879   1.439       .  S
C471        H473   1.082       .  S
N474        N475   1.323       .  A
N474        C478   1.348       .  A
N475        C476   1.343       .  A
C476        C477   1.381       .  A
C476        H479   1.082       .  S
C477        C478   1.388       .  A
C477       C1858   1.478       .  S
C478        H480   1.081       .  S
N481        N482   1.322       .  A
N481        C485   1.351       .  A
N481       Cu489   2.089       .  S
N482        C483   1.340       .  A
N482       Cu488   2.060       .  S
C483        C484   1.378       .  A
C483        H486   1.082       .  S
C484        C485   1.390       .  A
C484       C1866   1.476       .  S
C485        H487   1.082       .  S
Cu488       N491   2.059       .  S
Cu489       N499   2.090       .  S
Cu490       N492   2.078       .  S
Cu490       N498   2.080       .  S
N491        N492   1.320       .  A
N491        C495   1.342       .  A
N492        C493   1.348       .  A
C493        C494   1.390       .  A
C493        H496   1.081       .  S
C494        C495   1.379       .  A
C494       C1853   1.477       .  S
C495        H497   1.082       .  S
N498        N499   1.325       .  A
N498        C502   1.344       .  A
N499        C500   1.347       .  A
C500        C501   1.384       .  A
C500        H503   1.082       .  S
C501        C502   1.385       .  A
C501       C1857   1.481       .  S
C502        H504   1.081       .  S
N505        C510   1.355       .  A
N505        C509   1.353       .  A
N505        H537   1.033       .  S
N506        C513   1.351       .  A
N506        C514   1.352       .  A
N507        C512   1.352       .  A
N507        C511   1.353       .  A
N507        H538   1.035       .  S
N508        C515   1.353       .  A
N508        C516   1.351       .  A
C509        C517   1.388       .  A
C509        C525   1.417       .  A
C510        C526   1.417       .  A
C510        C518   1.387       .  A
C511        C519   1.387       .  A
C511        C528   1.412       .  A
C512        C527   1.413       .  A
C512        C520   1.388       .  A
C513        C525   1.414       .  A
C513        C521   1.388       .  A
C514        C528   1.412       .  A
C514        C522   1.386       .  A
C515        C523   1.386       .  A
C515        C526   1.414       .  A
C516        C524   1.387       .  A
C516        C527   1.414       .  A
C517        C518   1.377       .  A
C517        H529   1.082       .  S
C518        H530   1.082       .  S
C519        C520   1.375       .  A
C519        H531   1.082       .  S
C520        H532   1.082       .  S
C521        C522   1.371       .  A
C521        H533   1.082       .  S
C522        H534   1.082       .  S
C523        C524   1.371       .  A
C523        H535   1.082       .  S
C524        H536   1.082       .  S
C525       C1845   1.447       .  S
C526       C1852   1.456       .  S
C527       C1847   1.446       .  S
C528       C1844   1.450       .  S
N539        N540   1.323       .  A
N539        C543   1.351       .  A
N539       Cu547   2.099       .  S
N540        C541   1.344       .  A
N540       Cu546   2.064       .  S
C541        C542   1.377       .  A
C541        H544   1.082       .  S
C542        C543   1.386       .  A
C542       C1851   1.443       .  S
C543        H545   1.082       .  S
Cu546       N549   2.064       .  S
Cu547       N557   2.100       .  S
Cu548       N550   2.074       .  S
Cu548       N556   2.075       .  S
N549        N550   1.322       .  A
N549        C553   1.343       .  A
N550        C551   1.347       .  A
C551        C552   1.381       .  A
C551        H554   1.082       .  S
C552        C553   1.378       .  A
C552       C1835   1.435       .  S
C553        H555   1.082       .  S
N556        N557   1.324       .  A
N556        C560   1.346       .  A
N557        C558   1.348       .  A
C558        C559   1.387   1_556  A
C558        H561   1.082       .  S
C559        C560   1.385   1_554  A
C559       C1837   1.485       .  S
C560        H562   1.081   1_556  S
N563        N564   1.322       .  A
N563        C567   1.343       .  A
N563       Cu571   2.060       .  S
N564        C565   1.346       .  A
N564       Cu570   2.071       .  S
C565        C566   1.380       .  A
C565        H568   1.082       .  S
C566        C567   1.377       .  A
C566       C1850   1.432       .  S
C567        H569   1.082       .  S
Cu570       N573   2.072       .  S
Cu571       N581   2.061   1_545  S
Cu572       N574   2.074       .  S
Cu572       N580   2.073   1_545  S
N573        N574   1.324       .  A
N573        C577   1.343       .  A
N574        C575   1.347       .  A
C575        C576   1.379       .  A
C575        H578   1.082       .  S
C576        C577   1.378       .  A
C576       C1878   1.435       .  S
C577        H579   1.082       .  S
N580        N581   1.322       .  A
N580        C584   1.345       .  A
N581        C582   1.342       .  A
C582        C583   1.379       .  A
C582        H585   1.082       .  S
C583        C584   1.386       .  A
C583       C1831   1.472       .  S
C584        H586   1.081       .  S
N587        N588   1.325       .  A
N587        C591   1.346       .  A
N587       Cu595   2.076       .  S
N588        C589   1.346       .  A
N588       Cu594   2.083       .  S
C589        C590   1.380       .  A
C589        H592   1.082       .  S
C590        C591   1.379       .  A
C590       C1882   1.438       .  S
C591        H593   1.082       .  S
Cu594       N597   2.082       .  S
Cu595       N605   2.075       .  S
Cu596       N598   2.061       .  S
Cu596       N604   2.061       .  S
N597        N598   1.322       .  A
N597        C601   1.348       .  A
N598        C599   1.343       .  A
C599        C600   1.377       .  A
C599        H602   1.082       .  S
C600        C601   1.383       .  A
C600       C1827   1.438       .  S
C601        H603   1.082       .  S
N604        N605   1.321       .  A
N604        C608   1.341       .  A
N605        C606   1.347       .  A
C606        C607   1.387       .  A
C606        H609   1.082       .  S
C607        C608   1.379       .  A
C607       C1823   1.473       .  S
C608        H610   1.082       .  S
N611        N612   1.323       .  A
N611        C615   1.345       .  A
N611       Cu619   2.075       .  S
N612        C613   1.343       .  A
N612       Cu618   2.070       .  S
C613        C614   1.386       .  A
C613        H616   1.081       .  S
C614        C615   1.382       .  A
C614       C1824   1.477       .  S
C615        H617   1.082       .  S
Cu618       N621   2.069       .  S
Cu619       N629   2.074       .  S
Cu620       N622   2.056       .  S
Cu620       N628   2.057       .  S
N621        N622   1.320       .  A
N621        C625   1.345       .  A
N622        C623   1.341       .  A
C623        C624   1.383       .  A
C623        H626   1.081       .  S
C624        C625   1.383       .  A
C624       C1820   1.472       .  S
C625        H627   1.082       .  S
N628        N629   1.321       .  A
N628        C632   1.341       .  A
N629        C630   1.346       .  A
C630        C631   1.383       .  A
C630        H633   1.082       .  S
C631        C632   1.384       .  A
C631       C1832   1.475       .  S
C632        H634   1.081       .  S
N635        C640   1.353       .  A
N635        C639   1.353       .  A
N635        H667   1.039       .  S
N636        C643   1.351       .  A
N636        C644   1.351       .  A
N637        C642   1.353       .  A
N637        C641   1.352       .  A
N637        H668   1.038       .  S
N638        C645   1.351       .  A
N638        C646   1.351       .  A
C639        C647   1.387       .  A
C639        C655   1.412       .  A
C640        C656   1.412       .  A
C640        C648   1.388       .  A
C641        C649   1.387       .  A
C641        C658   1.413       .  A
C642        C657   1.413       .  A
C642        C650   1.387       .  A
C643        C655   1.409       .  A
C643        C651   1.386       .  A
C644        C658   1.412       .  A
C644        C652   1.388       .  A
C645        C653   1.386       .  A
C645        C656   1.409       .  A
C646        C654   1.388       .  A
C646        C657   1.412       .  A
C647        C648   1.374       .  A
C647        H659   1.082       .  S
C648        H660   1.082       .  S
C649        C650   1.377       .  A
C649        H661   1.082       .  S
C650        H662   1.082       .  S
C651        C652   1.373       .  A
C651        H663   1.082       .  S
C652        H664   1.082       .  S
C653        C654   1.373       .  A
C653        H665   1.082       .  S
C654        H666   1.082       .  S
C655       C1836   1.448       .  S
C656       C1817   1.447       .  S
C657       C1816   1.449       .  S
C658       C1861   1.449       .  S
N669        N670   1.323       .  A
N669        C673   1.347       .  A
N669       Cu677   2.073       .  S
N670        C671   1.343       .  A
N670       Cu676   2.066       .  S
C671        C672   1.377       .  A
C671        H674   1.082       .  S
C672        C673   1.380       .  A
C672       C1808   1.433       .  S
C673        H675   1.082       .  S
Cu676       N679   2.066       .  S
Cu677       N687   2.073       .  S
Cu678       N680   2.068       .  S
Cu678       N686   2.069       .  S
N679        N680   1.322       .  A
N679        C683   1.343       .  A
N680        C681   1.346       .  A
C681        C682   1.380       .  A
C681        H684   1.082       .  S
C682        C683   1.378       .  A
C682       C1818   1.434       .  S
C683        H685   1.082       .  S
N686        N687   1.322       .  A
N686        C690   1.343       .  A
N687        C688   1.345       .  A
C688        C689   1.382   1_556  A
C688        H691   1.082       .  S
C689        C690   1.385   1_554  A
C689       C1809   1.476       .  S
C690        H692   1.081       .  S
N693        C698   1.354       .  A
N693        C697   1.353       .  A
N693        H725   1.038       .  S
N694        C701   1.350       .  A
N694        C702   1.351       .  A
N695        C700   1.352       .  A
N695        C699   1.354       .  A
N695        H726   1.038       .  S
N696        C703   1.352       .  A
N696        C704   1.352       .  A
C697        C705   1.387       .  A
C697        C713   1.413       .  A
C698        C714   1.414       .  A
C698        C706   1.388       .  A
C699        C707   1.387       .  A
C699        C716   1.414       .  A
C700        C715   1.414       .  A
C700        C708   1.388       .  A
C701        C713   1.409       .  A
C701        C709   1.387       .  A
C702        C716   1.411       .  A
C702        C710   1.387       .  A
C703        C711   1.386       .  A
C703        C714   1.412       .  A
C704        C712   1.388       .  A
C704        C715   1.414       .  A
C705        C706   1.374       .  A
C705        H717   1.082       .  S
C706        H718   1.082       .  S
C707        C708   1.376       .  A
C707        H719   1.082       .  S
C708        H720   1.082       .  S
C709        C710   1.372       .  A
C709        H721   1.082       .  S
C710        H722   1.082       .  S
C711        C712   1.374       .  A
C711        H723   1.082       .  S
C712        H724   1.082       .  S
C713       C1807   1.448       .  S
C714       C1805   1.452       .  S
C715       C1872   1.450       .  S
C716       C1830   1.451       .  S
N727        N728   1.323       .  A
N727        C731   1.348       .  A
N727       Cu735   2.087       .  S
N728        C729   1.344       .  A
N728       Cu734   2.064       .  S
C729        C730   1.377       .  A
C729        H732   1.082       .  S
C730        C731   1.383       .  A
C730       C1806   1.438       .  S
C731        H733   1.082       .  S
Cu734       N737   2.063       .  S
Cu735       N745   2.088       .  S
Cu736       N738   2.068       .  S
Cu736       N744   2.069       .  S
N737        N738   1.322       .  A
N737        C741   1.342       .  A
N738        C739   1.347       .  A
C739        C740   1.380       .  A
C739        H742   1.082       .  S
C740        C741   1.376       .  A
C740       C1846   1.432       .  S
C741        H743   1.082       .  S
N744        N745   1.323       .  A
N744        C748   1.343   1_556  A
N745        C746   1.348   1_556  A
C746        C747   1.389       .  A
C746        H749   1.081       .  S
C747        C748   1.379       .  A
C747       C1801   1.478       .  S
C748        H750   1.082       .  S
N751        N752   1.322       .  A
N751        C755   1.346       .  A
N751       Cu759   2.072       .  S
N752        C753   1.344       .  A
N752       Cu758   2.068       .  S
C753        C754   1.378       .  A
C753        H756   1.082       .  S
C754        C755   1.380       .  A
C754       C1813   1.435       .  S
C755        H757   1.082       .  S
Cu758       N761   2.067   1_655  S
Cu759       N769   2.072       .  S
Cu760       N762   2.069   1_655  S
Cu760       N768   2.069       .  S
N761        N762   1.321       .  A
N761        C765   1.342       .  A
N762        C763   1.346       .  A
C763        C764   1.383       .  A
C763        H766   1.082       .  S
C764        C765   1.385       .  A
C764       C1797   1.477       .  S
C765        H767   1.081       .  S
N768        N769   1.324       .  A
N768        C772   1.344       .  A
N769        C770   1.345       .  A
C770        C771   1.379       .  A
C770        H773   1.082       .  S
C771        C772   1.377       .  A
C771       C1884   1.433       .  S
C772        H774   1.082       .  S
N775        N776   1.321       .  A
N775        C779   1.346       .  A
N775       Cu783   2.071       .  S
N776        C777   1.344       .  A
N776       Cu782   2.064       .  S
C777        C778   1.379       .  A
C777        H780   1.082       .  S
C778        C779   1.381       .  A
C778       C1841   1.436       .  S
C779        H781   1.082       .  S
Cu782       N785   2.065   1_545  S
Cu783       N793   2.072       .  S
Cu784       N786   2.097   1_545  S
Cu784       N792   2.097       .  S
N785        N786   1.323       .  A
N785        C789   1.342       .  A
N786        C787   1.349       .  A
C787        C788   1.388       .  A
C787        H790   1.082       .  S
C788        C789   1.384       .  A
C788       C1793   1.483       .  S
C789        H791   1.081       .  S
N792        N793   1.325       .  A
N792        C796   1.350       .  A
N793        C794   1.344       .  A
C794        C795   1.377       .  A
C794        H797   1.082       .  S
C795        C796   1.385       .  A
C795       C1874   1.443       .  S
C796        H798   1.082       .  S
N799        N800   1.323       .  A
N799        C803   1.342       .  A
N799       Cu807   2.066       .  S
N800        C801   1.347       .  A
N800       Cu806   2.079       .  S
C801        C802   1.386       .  A
C801        H804   1.081       .  S
C802        C803   1.379       .  A
C802       C1798   1.473       .  S
C803        H805   1.082       .  S
Cu806       N809   2.079       .  S
Cu807       N817   2.066       .  S
Cu808       N810   2.077       .  S
Cu808       N816   2.076       .  S
N809        N810   1.323       .  A
N809        C813   1.348       .  A
N810        C811   1.344       .  A
C811        C812   1.382       .  A
C811        H814   1.082       .  S
C812        C813   1.386       .  A
C812       C1794   1.478       .  S
C813        H815   1.081       .  S
N816        N817   1.321       .  A
N816        C820   1.345       .  A
N817        C818   1.345       .  A
C818        C819   1.382       .  A
C818        H821   1.082       .  S
C819        C820   1.387       .  A
C819       C1789   1.478       .  S
C820        H822   1.081       .  S
N823        N824   1.321       .  A
N823        C827   1.347       .  A
N823       Cu831   2.075       .  S
N824        C825   1.342       .  A
N824       Cu830   2.054       .  S
C825        C826   1.376       .  A
C825        H828   1.082       .  S
C826        C827   1.383       .  A
C826       C1785   1.434       .  S
C827        H829   1.082       .  S
Cu830       N833   2.055       .  S
Cu831       N841   2.076       .  S
Cu832       N834   2.080       .  S
Cu832       N840   2.082       .  S
N833        N834   1.321       .  A
N833        C837   1.339   1_455  A
N834        C835   1.348   1_455  A
C835        C836   1.386       .  A
C835        H838   1.082       .  S
C836        C837   1.383       .  A
C836       C1782   1.478       .  S
C837        H839   1.081       .  S
N840        N841   1.325       .  A
N840        C844   1.347       .  A
N841        C842   1.344       .  A
C842        C843   1.377       .  A
C842        H845   1.082       .  S
C843        C844   1.380       .  A
C843       C1779   1.436       .  S
C844        H846   1.082       .  S
N847        N848   1.323       .  A
N847        C851   1.349       .  A
N847       Cu855   2.090       .  S
N848        C849   1.343       .  A
N848       Cu854   2.064       .  S
C849        C850   1.377       .  A
C849        H852   1.082       .  S
C850        C851   1.384       .  A
C850       C1775   1.439       .  S
C851        H853   1.082       .  S
Cu854       N857   2.064   1_565  S
Cu855       N865   2.091       .  S
Cu856       N858   2.069   1_565  S
Cu856       N864   2.070       .  S
N857        N858   1.320       .  A
N857        C861   1.342       .  A
N858        C859   1.346       .  A
C859        C860   1.383       .  A
C859        H862   1.082       .  S
C860        C861   1.385       .  A
C860       C1771   1.477       .  S
C861        H863   1.081       .  S
N864        N865   1.325       .  A
N864        C868   1.345       .  A
N865        C866   1.347       .  A
C866        C867   1.382       .  A
C866        H869   1.082       .  S
C867        C868   1.377       .  A
C867       C1769   1.440       .  S
C868        H870   1.082       .  S
N871        N872   1.323       .  A
N871        C875   1.341       .  A
N871       Cu879   2.065       .  S
N872        C873   1.347       .  A
N872       Cu878   2.077       .  S
C873        C874   1.385       .  A
C873        H876   1.082       .  S
C874        C875   1.378       .  A
C874       C1781   1.471       .  S
C875        H877   1.082       .  S
Cu878       N881   2.076       .  S
Cu879       N889   2.064       .  S
Cu880       N882   2.064       .  S
Cu880       N888   2.063       .  S
N881        N882   1.322       .  A
N881        C885   1.346       .  A
N882        C883   1.342       .  A
C883        C884   1.379       .  A
C883        H886   1.082       .  S
C884        C885   1.387       .  A
C884       C1772   1.473       .  S
C885        H887   1.081       .  S
N888        N889   1.320       .  A
N888        C892   1.342       .  A
N889        C890   1.345       .  A
C890        C891   1.385       .  A
C890        H893   1.081       .  S
C891        C892   1.380       .  A
C891       C1904   1.472       .  S
C892        H894   1.082       .  S
N895        N896   1.325       .  A
N895        C899   1.349       .  A
N895       Cu903   2.090       .  S
N896        C897   1.344       .  A
N896       Cu902   2.075       .  S
C897        C898   1.377       .  A
C897        H900   1.082       .  S
C898        C899   1.383       .  A
C898       C1759   1.441       .  S
C899        H901   1.082       .  S
Cu902       N905   2.074       .  S
Cu903       N913   2.089       .  S
Cu904       N906   2.062       .  S
Cu904       N912   2.062       .  S
N905        N906   1.320       .  A
N905        C909   1.347       .  A
N906        C907   1.344       .  A
C907        C908   1.379       .  A
C907        H910   1.082       .  S
C908        C909   1.382       .  A
C908       C1765   1.438       .  S
C909        H911   1.082       .  S
N912        N913   1.323       .  A
N912        C916   1.341       .  A
N913        C914   1.349       .  A
C914        C915   1.389       .  A
C914        H917   1.082       .  S
C915        C916   1.377       .  A
C915       C1762   1.474       .  S
C916        H918   1.082       .  S
N919        N920   1.324       .  A
N919        C923   1.344       .  A
N919       Cu927   2.071       .  S
N920        C921   1.347       .  A
N920       Cu926   2.081       .  S
C921        C922   1.381       .  A
C921        H924   1.082       .  S
C922        C923   1.377       .  A
C922       C1749   1.436       .  S
C923        H925   1.082       .  S
Cu926       N929   2.080   1_565  S
Cu927       N937   2.070       .  S
Cu928       N930   2.064   1_565  S
Cu928       N936   2.063       .  S
N929        N930   1.322       .  A
N929        C933   1.348       .  A
N930        C931   1.341       .  A
C931        C932   1.385       .  A
C931        H934   1.081       .  S
C932        C933   1.385       .  A
C932       C1751   1.480       .  S
C933        H935   1.082       .  S
N936        N937   1.321       .  A
N936        C940   1.344       .  A
N937        C938   1.345       .  A
C938        C939   1.380       .  A
C938        H941   1.082       .  S
C939        C940   1.378       .  A
C939       C1758   1.435       .  S
C940        H942   1.082       .  S
N943        N944   1.322       .  A
N943        C947   1.347       .  A
N943       Cu951   2.071       .  S
N944        C945   1.342       .  A
N944       Cu950   2.071       .  S
C945        C946   1.380       .  A
C945        H948   1.082       .  S
C946        C947   1.386       .  A
C946       C1752   1.474       .  S
C947        H949   1.082       .  S
Cu950       N953   2.071       .  S
Cu951       N961   2.072       .  S
Cu952       N954   2.083       .  S
Cu952       N960   2.084       .  S
N953        N954   1.321       .  A
N953        C957   1.344       .  A
N954        C955   1.349       .  A
C955        C956   1.389       .  A
C955        H958   1.081       .  S
C956        C957   1.382       .  A
C956       C1922   1.481       .  S
C957        H959   1.082       .  S
N960        N961   1.324       .  A
N960        C964   1.344       .  A
N961        C962   1.346       .  A
C962        C963   1.381       .  A
C962        H965   1.082       .  S
C963        C964   1.387       .  A
C963       C1761   1.479       .  S
C964        H966   1.081       .  S
N967        C972   1.352       .  A
N967        C971   1.354       .  A
N967        H999   1.038       .  S
N968        C975   1.351       .  A
N968        C976   1.350       .  A
N969        C974   1.354       .  A
N969        C973   1.353       .  A
N969       H1000   1.037       .  S
N970        C977   1.351       .  A
N970        C978   1.351       .  A
C971        C979   1.387       .  A
C971        C987   1.413       .  A
C972        C988   1.412       .  A
C972        C980   1.388       .  A
C973        C981   1.388       .  A
C973        C990   1.414       .  A
C974        C989   1.415       .  A
C974        C982   1.387       .  A
C975        C987   1.410       .  A
C975        C983   1.386       .  A
C976        C990   1.412       .  A
C976        C984   1.388       .  A
C977        C985   1.386       .  A
C977        C988   1.410       .  A
C978        C986   1.387       .  A
C978        C989   1.412       .  A
C979        C980   1.374       .  A
C979        H991   1.082       .  S
C980        H992   1.082       .  S
C981        C982   1.376       .  A
C981        H993   1.082       .  S
C982        H994   1.082       .  S
C983        C984   1.374       .  A
C983        H995   1.082       .  S
C984        H996   1.082       .  S
C985        C986   1.374       .  A
C985        H997   1.082       .  S
C986        H998   1.082       .  S
C987       C1747   1.451       .  S
C988       C1746   1.447       .  S
C989       C1778   1.452       .  S
C990       C1755   1.449       .  S
N1001      N1002   1.323       .  A
N1001      C1005   1.349       .  A
N1001     Cu1009   2.081       .  S
N1002      C1003   1.343       .  A
N1002     Cu1008   2.066       .  S
C1003      C1004   1.376       .  A
C1003      H1006   1.082       .  S
C1004      C1005   1.383       .  A
C1004      C1744   1.437       .  S
C1005      H1007   1.082       .  S
Cu1008     N1011   2.066       .  S
Cu1009     N1019   2.081       .  S
Cu1010     N1012   2.066       .  S
Cu1010     N1018   2.066       .  S
N1011      N1012   1.322       .  A
N1011      C1015   1.344       .  A
N1012      C1013   1.345       .  A
C1013      C1014   1.379       .  A
C1013      H1016   1.082       .  S
C1014      C1015   1.378       .  A
C1014      C1745   1.434       .  S
C1015      H1017   1.082       .  S
N1018      N1019   1.323       .  A
N1018      C1022   1.344       .  A
N1019      C1020   1.345       .  A
C1020      C1021   1.383       .  A
C1020      H1023   1.082       .  S
C1021      C1022   1.384       .  A
C1021      C1886   1.475       .  S
C1022      H1024   1.081       .  S
N1025      C1030   1.354       .  A
N1025      C1029   1.354       .  A
N1025      H1057   1.038       .  S
N1026      C1033   1.351       .  A
N1026      C1034   1.351       .  A
N1027      C1032   1.353       .  A
N1027      C1031   1.351       .  A
N1027      H1058   1.039       .  S
N1028      C1035   1.350       .  A
N1028      C1036   1.351       .  A
C1029      C1037   1.387       .  A
C1029      C1045   1.415       .  A
C1030      C1046   1.415       .  A
C1030      C1038   1.388       .  A
C1031      C1039   1.388       .  A
C1031      C1048   1.411       .  A
C1032      C1047   1.411       .  A
C1032      C1040   1.387       .  A
C1033      C1045   1.411       .  A
C1033      C1041   1.387       .  A
C1034      C1048   1.411       .  A
C1034      C1042   1.387       .  A
C1035      C1043   1.387       .  A
C1035      C1046   1.410       .  A
C1036      C1044   1.387       .  A
C1036      C1047   1.410       .  A
C1037      C1038   1.376       .  A
C1037      H1049   1.082       .  S
C1038      H1050   1.082       .  S
C1039      C1040   1.375       .  A
C1039      H1051   1.082       .  S
C1040      H1052   1.082       .  S
C1041      C1042   1.372       .  A
C1041      H1053   1.082       .  S
C1042      H1054   1.082       .  S
C1043      C1044   1.372       .  A
C1043      H1055   1.082       .  S
C1044      H1056   1.082       .  S
C1045      C1739   1.451       .  S
C1046      C1741   1.448       .  S
C1047      C1788   1.448       .  S
C1048      C1738   1.447       .  S
N1059      N1060   1.323       .  A
N1059      C1063   1.347       .  A
N1059     Cu1067   2.077       .  S
N1060      C1061   1.345       .  A
N1060     Cu1066   2.074       .  S
C1061      C1062   1.379       .  A
C1061      H1064   1.082       .  S
C1062      C1063   1.380       .  A
C1062      C1748   1.438       .  S
C1063      H1065   1.082       .  S
Cu1066     N1069   2.074       .  S
Cu1067     N1077   2.078       .  S
Cu1068     N1070   2.076       .  S
Cu1068     N1076   2.076       .  S
N1069      N1070   1.323       .  A
N1069      C1073   1.345       .  A
N1070      C1071   1.347       .  A
C1071      C1072   1.380       .  A
C1071      H1074   1.082       .  S
C1072      C1073   1.379       .  A
C1072      C1740   1.438       .  S
C1073      H1075   1.082       .  S
N1076      N1077   1.322       .  A
N1076      C1080   1.346       .  A
N1077      C1078   1.345       .  A
C1078      C1079   1.388       .  A
C1078      H1081   1.081       .  S
C1079      C1080   1.382       .  A
C1079      C1934   1.480       .  S
C1080      H1082   1.082       .  S
N1083      C1088   1.354       .  A
N1083      C1087   1.351       .  A
N1083      H1115   1.038       .  S
N1084      C1091   1.350       .  A
N1084      C1092   1.351       .  A
N1085      C1090   1.352       .  A
N1085      C1089   1.354       .  A
N1085      H1116   1.038       .  S
N1086      C1093   1.351       .  A
N1086      C1094   1.349       .  A
C1087      C1095   1.388       .  A
C1087      C1103   1.412       .  A
C1088      C1104   1.412       .  A
C1088      C1096   1.387       .  A
C1089      C1097   1.386       .  A
C1089      C1106   1.412       .  A
C1090      C1105   1.414       .  A
C1090      C1098   1.389       .  A
C1091      C1103   1.409       .  A
C1091      C1099   1.387       .  A
C1092      C1106   1.411       .  A
C1092      C1100   1.387       .  A
C1093      C1101   1.386       .  A
C1093      C1104   1.410       .  A
C1094      C1102   1.388       .  A
C1094      C1105   1.411       .  A
C1095      C1096   1.374       .  A
C1095      H1107   1.082       .  S
C1096      H1108   1.082       .  S
C1097      C1098   1.376       .  A
C1097      H1109   1.082       .  S
C1098      H1110   1.082       .  S
C1099      C1100   1.372       .  A
C1099      H1111   1.082       .  S
C1100      H1112   1.082       .  S
C1101      C1102   1.373       .  A
C1101      H1113   1.082       .  S
C1102      H1114   1.082       .  S
C1103      C1733   1.443       .  S
C1104      C1743   1.451       .  S
C1105      C1729   1.445       .  S
C1106      C1768   1.451       .  S
N1117      N1118   1.323       .  A
N1117      C1121   1.344       .  A
N1117     Cu1125   2.064       .  S
N1118      C1119   1.343       .  A
N1118     Cu1124   2.064       .  S
C1119      C1120   1.377       .  A
C1119      H1122   1.082       .  S
C1120      C1121   1.377       .  A
C1120      C1734   1.429       .  S
C1121      H1123   1.082       .  S
Cu1124     N1127   2.064       .  S
Cu1125     N1135   2.064       .  S
Cu1126     N1128   2.070       .  S
Cu1126     N1134   2.070       .  S
N1127      N1128   1.322       .  A
N1127      C1131   1.343       .  A
N1128      C1129   1.346       .  A
C1129      C1130   1.380       .  A
C1129      H1132   1.082       .  S
C1130      C1131   1.378       .  A
C1130      C1742   1.434       .  S
C1131      H1133   1.082       .  S
N1134      N1135   1.322       .  A
N1134      C1138   1.342       .  A
N1135      C1136   1.345       .  A
C1136      C1137   1.381       .  A
C1136      H1139   1.082       .  S
C1137      C1138   1.386       .  A
C1137      C1957   1.476       .  S
C1138      H1140   1.081       .  S
N1141      N1142   1.325       .  A
N1141      C1145   1.350       .  A
N1141     Cu1149   2.093       .  S
N1142      C1143   1.341       .  A
N1142     Cu1148   2.064       .  S
C1143      C1144   1.373       .  A
C1143      H1146   1.082       .  S
C1144      C1145   1.384       .  A
C1144      C1723   1.437       .  S
C1145      H1147   1.082       .  S
Cu1148     N1151   2.063       .  S
Cu1149     N1159   2.092       .  S
Cu1150     N1152   2.048       .  S
Cu1150     N1158   2.048       .  S
N1151      N1152   1.319       .  A
N1151      C1155   1.345       .  A
N1152      C1153   1.342       .  A
C1153      C1154   1.377       .  A
C1153      H1156   1.082       .  S
C1154      C1155   1.380       .  A
C1154      C1732   1.431       .  S
C1155      H1157   1.082       .  S
N1158      N1159   1.323       .  A
N1158      C1162   1.337       .  A
N1159      C1160   1.350       .  A
C1160      C1161   1.389       .  A
C1160      H1163   1.082       .  S
C1161      C1162   1.373       .  A
C1161      C1725   1.469       .  S
C1162      H1164   1.082       .  S
N1165      N1166   1.324       .  A
N1165      C1169   1.344       .  A
N1165     Cu1173   2.070       .  S
N1166      C1167   1.345       .  A
N1166     Cu1172   2.070       .  S
C1167      C1168   1.378       .  A
C1167      H1170   1.082       .  S
C1168      C1169   1.378       .  A
C1168      C1717   1.433       .  S
C1169      H1171   1.082       .  S
Cu1172     N1175   2.070       .  S
Cu1173     N1183   2.069       .  S
Cu1174     N1176   2.063       .  S
Cu1174     N1182   2.063       .  S
N1175      N1176   1.321       .  A
N1175      C1179   1.345       .  A
N1176      C1177   1.342       .  A
C1177      C1178   1.384   1_455  A
C1177      H1180   1.081   1_455  S
C1178      C1179   1.382   1_655  A
C1178      C1720   1.473       .  S
C1179      H1181   1.082       .  S
N1182      N1183   1.322       .  A
N1182      C1186   1.343       .  A
N1183      C1184   1.346       .  A
C1184      C1185   1.380       .  A
C1184      H1187   1.082       .  S
C1185      C1186   1.377       .  A
C1185      C1735   1.433       .  S
C1186      H1188   1.082       .  S
N1189      N1190   1.322       .  A
N1189      C1193   1.346       .  A
N1189     Cu1197   2.067       .  S
N1190      C1191   1.341       .  A
N1190     Cu1196   2.069       .  S
C1191      C1192   1.386       .  A
C1191      H1194   1.081       .  S
C1192      C1193   1.381       .  A
C1192      C1726   1.477       .  S
C1193      H1195   1.082       .  S
Cu1196     N1199   2.068       .  S
Cu1197     N1207   2.067       .  S
Cu1198     N1200   2.068       .  S
Cu1198     N1206   2.068       .  S
N1199      N1200   1.321       .  A
N1199      C1203   1.345       .  A
N1200      C1201   1.343       .  A
C1201      C1202   1.386       .  A
C1201      H1204   1.081       .  S
C1202      C1203   1.382       .  A
C1202      C1910   1.477       .  S
C1203      H1205   1.082       .  S
N1206      N1207   1.322       .  A
N1206      C1210   1.343       .  A
N1207      C1208   1.344       .  A
C1208      C1209   1.385       .  A
C1208      H1211   1.081       .  S
C1209      C1210   1.380       .  A
C1209      C1719   1.473       .  S
C1210      H1212   1.082       .  S
O1213     Cu1221   2.005       .  S
O1213      C1223   1.276       .  A
O1214     Cu1221   2.006       .  S
O1214      C1224   1.276       .  A
O1215     Cu1221   2.012       .  S
O1215      C1225   1.277       .  A
O1216     Cu1221   2.011       .  S
O1216      C1226   1.277       .  A
O1217     Cu1222   2.020       .  S
O1217      C1226   1.278       .  A
O1218     Cu1222   2.020       .  S
O1218      C1225   1.278       .  A
O1219     Cu1222   2.011       .  S
O1219      C1224   1.276       .  A
O1220     Cu1222   2.013       .  S
O1220      C1223   1.277       .  A
Cu1221    Cu1222   2.379       .  S
C1223      C1780   1.434       .  S
C1224      C1716   1.434       .  S
C1225      C1713   1.440       .  S
C1226      C1760   1.440       .  S
O1227     Cu1235   2.028       .  S
O1227      C1237   1.279       .  A
O1228     Cu1235   2.029       .  S
O1228      C1238   1.279       .  A
O1229     Cu1235   2.007       .  S
O1229      C1239   1.275       .  A
O1230     Cu1235   2.005       .  S
O1230      C1240   1.275       .  A
O1231     Cu1236   2.016       .  S
O1231      C1240   1.278       .  A
O1232     Cu1236   2.017       .  S
O1232      C1239   1.278       .  A
O1233     Cu1236   1.998       .  S
O1233      C1238   1.274       .  A
O1234     Cu1236   1.998       .  S
O1234      C1237   1.274       .  A
Cu1235    Cu1236   2.379       .  S
C1237      C1709   1.437       .  S
C1238      C1770   1.438       .  S
C1239      C1724   1.436       .  S
C1240      C1711   1.435       .  S
N1241      N1242   1.322       .  A
N1241      C1245   1.346       .  A
N1241     Cu1249   2.070       .  S
N1242      C1243   1.344       .  A
N1242     Cu1248   2.070       .  S
C1243      C1244   1.379       .  A
C1243      H1246   1.082       .  S
C1244      C1245   1.380       .  A
C1244      C1708   1.436       .  S
C1245      H1247   1.082       .  S
Cu1248     N1251   2.071       .  S
Cu1249     N1259   2.071       .  S
Cu1250     N1252   2.098       .  S
Cu1250     N1258   2.098       .  S
N1251      N1252   1.322       .  A
N1251      C1255   1.344       .  A
N1252      C1253   1.351       .  A
C1253      C1254   1.389   1_455  A
C1253      H1256   1.082       .  S
C1254      C1255   1.386   1_655  A
C1254      C1702   1.489       .  S
C1255      H1257   1.081   1_455  S
N1258      N1259   1.325       .  A
N1258      C1262   1.349       .  A
N1259      C1260   1.345       .  A
C1260      C1261   1.378       .  A
C1260      H1263   1.082       .  S
C1261      C1262   1.384       .  A
C1261      C1714   1.442       .  S
C1262      H1264   1.082       .  S
N1265      N1266   1.322       .  A
N1265      C1269   1.346       .  A
N1265     Cu1273   2.067       .  S
N1266      C1267   1.345       .  A
N1266     Cu1272   2.072       .  S
C1267      C1268   1.380       .  A
C1267      H1270   1.082       .  S
C1268      C1269   1.380       .  A
C1268      C1700   1.436       .  S
C1269      H1271   1.082       .  S
Cu1272     N1275   2.073   1_565  S
Cu1273     N1283   2.067       .  S
Cu1274     N1276   2.084   1_565  S
Cu1274     N1282   2.085       .  S
N1275      N1276   1.322       .  A
N1275      C1279   1.343       .  A
N1276      C1277   1.348       .  A
C1277      C1278   1.385       .  A
C1277      H1280   1.082       .  S
C1278      C1279   1.386       .  A
C1278      C1693   1.483       .  S
C1279      H1281   1.081       .  S
N1282      N1283   1.324       .  A
N1282      C1286   1.348       .  A
N1283      C1284   1.343       .  A
C1284      C1285   1.376       .  A
C1284      H1287   1.082       .  S
C1285      C1286   1.382       .  A
C1285      C1712   1.437       .  S
C1286      H1288   1.082       .  S
N1289      N1290   1.325       .  A
N1289      C1293   1.345       .  A
N1289     Cu1297   2.094       .  S
N1290      C1291   1.351       .  A
N1290     Cu1296   2.090       .  S
C1291      C1292   1.388       .  A
C1291      H1294   1.082       .  S
C1292      C1293   1.383       .  A
C1292      C1701   1.483       .  S
C1293      H1295   1.082       .  S
Cu1296     N1299   2.089       .  S
Cu1297     N1307   2.093       .  S
Cu1298     N1300   2.068       .  S
Cu1298     N1306   2.067       .  S
N1299      N1300   1.323       .  A
N1299      C1303   1.350       .  A
N1300      C1301   1.341       .  A
C1301      C1302   1.379       .  A
C1301      H1304   1.082       .  S
C1302      C1303   1.389       .  A
C1302      C1694   1.477       .  S
C1303      H1305   1.082       .  S
N1306      N1307   1.320       .  A
N1306      C1310   1.345       .  A
N1307      C1308   1.348       .  A
C1308      C1309   1.388       .  A
C1308      H1311   1.082       .  S
C1309      C1310   1.386       .  A
C1309      C1838   1.485       .  S
C1310      H1312   1.081       .  S
N1313      N1314   1.325       .  A
N1313      C1317   1.347       .  A
N1313     Cu1321   2.082       .  S
N1314      C1315   1.344       .  A
N1314     Cu1320   2.070       .  S
C1315      C1316   1.377       .  A
C1315      H1318   1.082       .  S
C1316      C1317   1.380       .  A
C1316      C1715   1.436       .  S
C1317      H1319   1.082       .  S
Cu1320     N1323   2.069       .  S
Cu1321     N1331   2.081       .  S
Cu1322     N1324   2.066       .  S
Cu1322     N1330   2.066       .  S
N1323      N1324   1.321       .  A
N1323      C1327   1.346       .  A
N1324      C1325   1.343       .  A
C1325      C1326   1.378       .  A
C1325      H1328   1.082       .  S
C1326      C1327   1.381       .  A
C1326      C1692   1.435       .  S
C1327      H1329   1.082       .  S
N1330      N1331   1.322       .  A
N1330      C1334   1.342       .  A
N1331      C1332   1.349       .  A
C1332      C1333   1.388       .  A
C1332      H1335   1.082       .  S
C1333      C1334   1.379       .  A
C1333      C1686   1.475       .  S
C1334      H1336   1.082       .  S
N1337      N1338   1.323       .  A
N1337      C1341   1.342       .  A
N1337     Cu1345   2.063       .  S
N1338      C1339   1.346       .  A
N1338     Cu1344   2.073       .  S
C1339      C1340   1.380       .  A
C1339      H1342   1.082       .  S
C1340      C1341   1.376       .  A
C1340      C1676   1.432       .  S
C1341      H1343   1.082       .  S
Cu1344     N1347   2.073   1_565  S
Cu1345     N1355   2.063       .  S
Cu1346     N1348   2.077   1_565  S
Cu1346     N1354   2.076       .  S
N1347      N1348   1.323       .  A
N1347      C1351   1.346       .  A
N1348      C1349   1.344       .  A
C1349      C1350   1.381       .  A
C1349      H1352   1.082       .  S
C1350      C1351   1.385       .  A
C1350      C1677   1.476       .  S
C1351      H1353   1.082       .  S
N1354      N1355   1.322       .  A
N1354      C1358   1.346       .  A
N1355      C1356   1.344       .  A
C1356      C1357   1.379       .  A
C1356      H1359   1.082       .  S
C1357      C1358   1.381       .  A
C1357      C1684   1.436       .  S
C1358      H1360   1.082       .  S
N1361      N1362   1.324       .  A
N1361      C1365   1.346       .  A
N1361     Cu1369   2.082       .  S
N1362      C1363   1.344       .  A
N1362     Cu1368   2.079       .  S
C1363      C1364   1.385       .  A
C1363      H1366   1.081       .  S
C1364      C1365   1.382       .  A
C1364      C1678   1.478       .  S
C1365      H1367   1.082       .  S
Cu1368     N1371   2.078       .  S
Cu1369     N1379   2.081       .  S
Cu1370     N1372   2.065       .  S
Cu1370     N1378   2.065       .  S
N1371      N1372   1.321       .  A
N1371      C1375   1.346       .  A
N1372      C1373   1.344       .  A
C1373      C1374   1.381       .  A
C1373      H1376   1.082       .  S
C1374      C1375   1.389       .  A
C1374      C1802   1.479       .  S
C1375      H1377   1.081       .  S
N1378      N1379   1.321       .  A
N1378      C1382   1.341       .  A
N1379      C1380   1.348       .  A
C1380      C1381   1.386       .  A
C1380      H1383   1.082       .  S
C1381      C1382   1.385       .  A
C1381      C1685   1.482       .  S
C1382      H1384   1.081       .  S
N1385      N1386   1.323       .  A
N1385      C1389   1.346       .  A
N1385     Cu1393   2.072   1_554  S
N1386      C1387   1.345       .  A
N1386     Cu1392   2.075       .  S
C1387      C1388   1.380       .  A
C1387      H1390   1.082       .  S
C1388      C1389   1.380       .  A
C1388      C1671   1.438       .  S
C1389      H1391   1.082       .  S
Cu1392     N1395   2.075       .  S
Cu1393     N1403   2.073       .  S
Cu1394     N1396   2.078   1_556  S
Cu1394     N1402   2.078       .  S
N1395      N1396   1.323       .  A
N1395      C1399   1.344       .  A
N1396      C1397   1.348       .  A
C1397      C1398   1.381       .  A
C1397      H1400   1.082       .  S
C1398      C1399   1.379       .  A
C1398      C1673   1.438       .  S
C1399      H1401   1.082       .  S
N1402      N1403   1.323       .  A
N1402      C1406   1.346       .  A
N1403      C1404   1.344       .  A
C1404      C1405   1.381       .  A
C1404      H1407   1.082       .  S
C1405      C1406   1.386       .  A
C1405      C1790   1.477       .  S
C1406      H1408   1.081       .  S
N1409      C1414   1.353       .  A
N1409      C1413   1.354       .  A
N1409      H1441   1.039       .  S
N1410      C1417   1.351       .  A
N1410      C1418   1.350       .  A
N1411      C1416   1.353       .  A
N1411      C1415   1.353       .  A
N1411      H1442   1.038       .  S
N1412      C1419   1.351       .  A
N1412      C1420   1.351       .  A
C1413      C1421   1.388       .  A
C1413      C1429   1.414       .  A
C1414      C1430   1.411       .  A
C1414      C1422   1.387       .  A
C1415      C1423   1.388       .  A
C1415      C1432   1.414       .  A
C1416      C1431   1.413       .  A
C1416      C1424   1.387       .  A
C1417      C1429   1.410       .  A
C1417      C1425   1.386       .  A
C1418      C1432   1.412       .  A
C1418      C1426   1.388       .  A
C1419      C1427   1.386       .  A
C1419      C1430   1.410       .  A
C1420      C1428   1.387       .  A
C1420      C1431   1.411       .  A
C1421      C1422   1.374       .  A
C1421      H1433   1.082       .  S
C1422      H1434   1.082       .  S
C1423      C1424   1.376       .  A
C1423      H1435   1.082       .  S
C1424      H1436   1.082       .  S
C1425      C1426   1.374       .  A
C1425      H1437   1.082       .  S
C1426      H1438   1.082       .  S
C1427      C1428   1.372       .  A
C1427      H1439   1.082       .  S
C1428      H1440   1.082       .  S
C1429      C1674   1.451       .  S
C1430      C1669   1.447       .  S
C1431      C1705   1.449       .  S
C1432      C1665   1.448       .  S
N1443      N1444   1.321   1_556  A
N1443      C1447   1.345       .  A
N1443     Cu1451   2.062       .  S
N1444      C1445   1.343       .  A
N1444     Cu1450   2.064       .  S
C1445      C1446   1.378       .  A
C1445      H1448   1.082       .  S
C1446      C1447   1.379   1_554  A
C1446      C1663   1.431       .  S
C1447      H1449   1.082       .  S
Cu1450     N1453   2.065       .  S
Cu1451     N1461   2.062       .  S
Cu1452     N1454   2.072       .  S
Cu1452     N1460   2.073       .  S
N1453      N1454   1.322   1_554  A
N1453      C1457   1.343       .  A
N1454      C1455   1.347   1_556  A
C1455      C1456   1.380       .  A
C1455      H1458   1.082   1_554  S
C1456      C1457   1.377       .  A
C1456      C1662   1.434       .  S
C1457      H1459   1.082       .  S
N1460      N1461   1.323       .  A
N1460      C1464   1.344       .  A
N1461      C1462   1.342       .  A
C1462      C1463   1.383       .  A
C1462      H1465   1.081       .  S
C1463      C1464   1.381       .  A
C1463      C1819   1.471       .  S
C1464      H1466   1.082       .  S
N1467      C1472   1.354       .  A
N1467      C1471   1.354       .  A
N1467      H1499   1.038       .  S
N1468      C1475   1.351       .  A
N1468      C1476   1.351       .  A
N1469      C1474   1.352       .  A
N1469      C1473   1.353       .  A
N1469      H1500   1.037       .  S
N1470      C1477   1.352       .  A
N1470      C1478   1.351       .  A
C1471      C1479   1.387       .  A
C1471      C1487   1.414       .  A
C1472      C1488   1.415       .  A
C1472      C1480   1.388       .  A
C1473      C1481   1.387       .  A
C1473      C1490   1.413       .  A
C1474      C1489   1.413       .  A
C1474      C1482   1.387       .  A
C1475      C1487   1.410       .  A
C1475      C1483   1.387       .  A
C1476      C1490   1.412       .  A
C1476      C1484   1.387       .  A
C1477      C1485   1.386       .  A
C1477      C1488   1.412       .  A
C1478      C1486   1.387       .  A
C1478      C1489   1.413       .  A
C1479      C1480   1.373       .  A
C1479      H1491   1.082       .  S
C1480      H1492   1.082       .  S
C1481      C1482   1.375       .  A
C1481      H1493   1.082       .  S
C1482      H1494   1.082       .  S
C1483      C1484   1.372       .  A
C1483      H1495   1.082       .  S
C1484      H1496   1.082       .  S
C1485      C1486   1.374       .  A
C1485      H1497   1.082       .  S
C1486      H1498   1.082       .  S
C1487      C1661   1.448       .  S
C1488      C1672   1.452       .  S
C1489      C1681   1.450       .  S
C1490      C1697   1.450       .  S
N1501      C1506   1.354       .  A
N1501      C1505   1.352       .  A
N1501      H1533   1.037       .  S
N1502      C1509   1.351       .  A
N1502      C1510   1.353       .  A
N1503      C1508   1.353       .  A
N1503      C1507   1.355       .  A
N1503      H1534   1.036       .  S
N1504      C1511   1.353       .  A
N1504      C1512   1.351       .  A
C1505      C1513   1.389       .  A
C1505      C1521   1.414       .  A
C1506      C1522   1.414       .  A
C1506      C1514   1.388       .  A
C1507      C1515   1.387       .  A
C1507      C1524   1.417       .  A
C1508      C1523   1.416       .  A
C1508      C1516   1.388       .  A
C1509      C1521   1.413       .  A
C1509      C1517   1.387       .  A
C1510      C1524   1.414       .  A
C1510      C1518   1.387       .  A
C1511      C1519   1.386       .  A
C1511      C1522   1.412       .  A
C1512      C1520   1.389       .  A
C1512      C1523   1.415       .  A
C1513      C1514   1.373       .  A
C1513      H1525   1.082       .  S
C1514      H1526   1.082       .  S
C1515      C1516   1.376       .  A
C1515      H1527   1.082       .  S
C1516      H1528   1.082       .  S
C1517      C1518   1.372       .  A
C1517      H1529   1.082       .  S
C1518      H1530   1.082       .  S
C1519      C1520   1.371       .  A
C1519      H1531   1.082       .  S
C1520      H1532   1.082       .  S
C1521      C1664   1.446       .  S
C1522      C1660   1.451       .  S
C1523      C1689   1.449       .  S
C1524      C1658   1.457       .  S
N1535      N1536   1.323       .  A
N1535      C1539   1.348       .  A
N1535     Cu1543   2.082   1_554  S
N1536      C1537   1.342       .  A
N1536     Cu1542   2.064       .  S
C1537      C1538   1.376       .  A
C1537      H1540   1.082       .  S
C1538      C1539   1.383       .  A
C1538      C1659   1.436       .  S
C1539      H1541   1.082   1_554  S
Cu1542     N1545   2.064       .  S
Cu1543     N1553   2.082       .  S
Cu1544     N1546   2.071   1_556  S
Cu1544     N1552   2.072       .  S
N1545      N1546   1.322       .  A
N1545      C1549   1.344       .  A
N1546      C1547   1.345       .  A
C1547      C1548   1.379       .  A
C1547      H1550   1.082       .  S
C1548      C1549   1.378       .  A
C1548      C1670   1.434       .  S
C1549      H1551   1.082       .  S
N1552      N1553   1.323       .  A
N1552      C1556   1.345       .  A
N1553      C1554   1.345       .  A
C1554      C1555   1.388       .  A
C1554      H1557   1.081       .  S
C1555      C1556   1.381       .  A
C1555      C1854   1.480       .  S
C1556      H1558   1.082       .  S
N1559      N1560   1.325       .  A
N1559      C1563   1.346       .  A
N1559     Cu1567   2.076       .  S
N1560      C1561   1.347       .  A
N1560     Cu1566   2.088       .  S
C1561      C1562   1.381       .  A
C1561      H1564   1.082       .  S
C1562      C1563   1.378       .  A
C1562      C1710   1.440       .  S
C1563      H1565   1.082       .  S
Cu1566     N1569   2.087       .  S
Cu1567     N1577   2.075       .  S
Cu1568     N1570   2.073       .  S
Cu1568     N1576   2.073       .  S
N1569      N1570   1.322       .  A
N1569      C1573   1.349       .  A
N1570      C1571   1.346       .  A
C1571      C1572   1.380       .  A
C1571      H1574   1.082       .  S
C1572      C1573   1.384       .  A
C1572      C1655   1.444       .  S
C1573      H1575   1.082       .  S
N1576      N1577   1.321       .  A
N1576      C1580   1.342       .  A
N1577      C1578   1.348       .  A
C1578      C1579   1.385       .  A
C1578      H1581   1.082       .  S
C1579      C1580   1.387       .  A
C1579      C1651   1.482       .  S
C1580      H1582   1.081       .  S
N1583      N1584   1.324       .  A
N1583      C1587   1.343       .  A
N1583     Cu1591   2.067       .  S
N1584      C1585   1.347       .  A
N1584     Cu1590   2.082       .  S
C1585      C1586   1.381       .  A
C1585      H1588   1.082       .  S
C1586      C1587   1.376       .  A
C1586      C1646   1.436       .  S
C1587      H1589   1.082       .  S
Cu1590     N1593   2.081       .  S
Cu1591     N1601   2.067       .  S
Cu1592     N1594   2.065       .  S
Cu1592     N1600   2.064       .  S
N1593      N1594   1.322       .  A
N1593      C1597   1.348   1_455  A
N1594      C1595   1.340   1_455  A
C1595      C1596   1.385       .  A
C1595      H1598   1.081       .  S
C1596      C1597   1.385       .  A
C1596      C1647   1.480       .  S
C1597      H1599   1.082       .  S
N1600      N1601   1.321       .  A
N1600      C1604   1.344       .  A
N1601      C1602   1.345       .  A
C1602      C1603   1.380       .  A
C1602      H1605   1.082       .  S
C1603      C1604   1.379       .  A
C1603      C1668   1.435       .  S
C1604      H1606   1.082       .  S
N1607      N1608   1.324       .  A
N1607      C1611   1.350       .  A
N1607     Cu1615   2.086       .  S
N1608      C1609   1.341       .  A
N1608     Cu1614   2.069       .  S
C1609      C1610   1.378       .  A
C1609      H1612   1.082       .  S
C1610      C1611   1.388       .  A
C1610      C1652   1.475       .  S
C1611      H1613   1.082       .  S
Cu1614     N1617   2.068       .  S
Cu1615     N1625   2.086       .  S
Cu1616     N1618   2.059       .  S
Cu1616     N1624   2.060       .  S
N1617      N1618   1.319       .  A
N1617      C1621   1.345       .  A
N1618      C1619   1.342       .  A
C1619      C1620   1.380       .  A
C1619      H1622   1.082       .  S
C1620      C1621   1.387       .  A
C1620      C1810   1.473       .  S
C1621      H1623   1.081       .  S
N1624      N1625   1.323       .  A
N1624      C1628   1.340       .  A
N1625      C1626   1.349       .  A
C1626      C1627   1.388       .  A
C1626      H1629   1.081       .  S
C1627      C1628   1.377       .  A
C1627      C1648   1.472       .  S
C1628      H1630   1.082       .  S
O1631     Cu1639   2.008       .  S
O1631      C1641   1.276       .  A
O1632     Cu1639   2.010       .  S
O1632      C1642   1.276       .  A
O1633     Cu1639   2.009       .  S
O1633      C1643   1.276       .  A
O1634     Cu1639   2.010       .  S
O1634      C1644   1.277       .  A
O1635     Cu1640   2.000       .  S
O1635      C1644   1.275       .  A
O1636     Cu1640   1.999       .  S
O1636      C1643   1.275       .  A
O1637     Cu1640   2.009       .  S
O1637      C1642   1.277       .  A
O1638     Cu1640   2.009       .  S
O1638      C1641   1.277       .  A
Cu1639    Cu1640   2.381       .  S
C1641      C1645   1.434       .  S
C1642      C1750   1.434       .  S
C1643      C1675   1.430       .  S
C1644      C1718   1.431       .  S
C1645      C1646   1.205       .  T
C1647      C1648   1.343       .  D
C1647      H1649   1.085       .  S
C1648      H1650   1.084       .  S
C1651      C1652   1.343       .  D
C1651      H1653   1.086       .  S
C1652      H1654   1.085       .  S
C1655      C1656   1.210       .  T
C1656      C1657   1.418       .  S
C1657      C1658   1.210       .  T
C1659      C1660   1.206       .  T
C1661      C1662   1.205       .  T
C1663      C1664   1.203       .  T
C1665      C1666   1.205       .  T
C1666      C1667   1.410       .  S
C1667      C1668   1.204       .  T
C1669      C1670   1.204       .  T
C1671      C1672   1.207       .  T
C1673      C1674   1.207       .  T
C1675      C1676   1.203       .  T
C1677      C1678   1.344       .  D
C1677      H1679   1.085       .  S
C1678      H1680   1.085       .  S
C1681      C1682   1.205       .  T
C1682      C1683   1.411       .  S
C1683      C1684   1.205       .  T
C1685      C1686   1.344       .  D
C1685      H1687   1.085       .  S
C1686      H1688   1.084       .  S
C1689      C1690   1.205       .  T
C1690      C1691   1.410       .  S
C1691      C1692   1.204       .  T
C1693      C1694   1.344       .  D
C1693      H1695   1.086       .  S
C1694      H1696   1.085       .  S
C1697      C1698   1.205       .  T
C1698      C1699   1.411       .  S
C1699      C1700   1.205       .  T
C1701      C1702   1.348       .  D
C1701      H1703   1.084       .  S
C1702      H1704   1.085       .  S
C1705      C1706   1.205       .  T
C1706      C1707   1.411       .  S
C1707      C1708   1.205       .  T
C1709      C1710   1.207       .  T
C1711      C1712   1.206       .  T
C1713      C1714   1.209       .  T
C1715      C1716   1.205       .  T
C1717      C1718   1.204       .  T
C1719      C1720   1.342       .  D
C1719      H1721   1.085       .  S
C1720      H1722   1.085       .  S
C1723      C1724   1.206       .  T
C1725      C1726   1.339       .  D
C1725      H1727   1.085       .  S
C1726      H1728   1.086       .  S
C1729      C1730   1.203       .  T
C1730      C1731   1.406       .  S
C1731      C1732   1.202       .  T
C1733      C1734   1.201       .  T
C1735      C1736   1.203       .  T
C1736      C1737   1.408       .  S
C1737      C1738   1.204       .  T
C1739      C1740   1.207       .  T
C1741      C1742   1.204       .  T
C1743      C1744   1.206       .  T
C1745      C1746   1.204       .  T
C1747      C1748   1.207       .  T
C1749      C1750   1.205       .  T
C1751      C1752   1.344       .  D
C1751      H1753   1.085       .  S
C1752      H1754   1.084       .  S
C1755      C1756   1.205       .  T
C1756      C1757   1.410       .  S
C1757      C1758   1.204       .  T
C1759      C1760   1.208       .  T
C1761      C1762   1.341       .  D
C1761      H1763   1.086       .  S
C1762      H1764   1.085       .  S
C1765      C1766   1.206       .  T
C1766      C1767   1.413       .  S
C1767      C1768   1.207       .  T
C1769      C1770   1.208       .  T
C1771      C1772   1.342       .  D
C1771      H1773   1.085       .  S
C1772      H1774   1.085       .  S
C1775      C1776   1.207       .  T
C1776      C1777   1.414       .  S
C1777      C1778   1.207       .  T
C1779      C1780   1.205       .  T
C1781      C1782   1.343       .  D
C1781      H1783   1.085       .  S
C1782      H1784   1.086       .  S
C1785      C1786   1.204       .  T
C1786      C1787   1.409       .  S
C1787      C1788   1.204       .  T
C1789      C1790   1.343       .  D
C1789      H1791   1.085       .  S
C1790      H1792   1.085       .  S
C1793      C1794   1.347       .  D
C1793      H1795   1.085       .  S
C1794      H1796   1.084       .  S
C1797      C1798   1.342       .  D
C1797      H1799   1.085       .  S
C1798      H1800   1.085       .  S
C1801      C1802   1.342       .  D
C1801      H1803   1.085       .  S
C1802      H1804   1.085       .  S
C1805      C1806   1.207       .  T
C1807      C1808   1.204       .  T
C1809      C1810   1.343       .  D
C1809      H1811   1.085       .  S
C1810      H1812   1.085       .  S
C1813      C1814   1.205       .  T
C1814      C1815   1.410       .  S
C1815      C1816   1.205       .  T
C1817      C1818   1.204       .  T
C1819      C1820   1.343       .  D
C1819      H1821   1.085       .  S
C1820      H1822   1.085       .  S
C1823      C1824   1.342       .  D
C1823      H1825   1.085       .  S
C1824      H1826   1.086       .  S
C1827      C1828   1.206       .  T
C1828      C1829   1.412       .  S
C1829      C1830   1.206       .  T
C1831      C1832   1.342       .  D
C1831      H1833   1.085       .  S
C1832      H1834   1.085       .  S
C1835      C1836   1.205       .  T
C1837      C1838   1.349       .  D
C1837      H1839   1.085       .  S
C1838      H1840   1.085       .  S
C1841      C1842   1.205       .  T
C1842      C1843   1.411       .  S
C1843      C1844   1.206       .  T
C1845      C1846   1.204       .  T
C1847      C1848   1.203       .  T
C1848      C1849   1.407       .  S
C1849      C1850   1.203       .  T
C1851      C1852   1.210       .  T
C1853      C1854   1.342       .  D
C1853      H1855   1.085       .  S
C1854      H1856   1.085       .  S
C1857      C1858   1.345       .  D
C1857      H1859   1.085       .  S
C1858      H1860   1.085       .  S
C1861      C1862   1.205       .  T
C1862      C1863   1.410       .  S
C1863      C1864   1.205       .  T
C1865      C1866   1.344       .  D
C1865      H1867   1.086       .  S
C1866      H1868   1.085       .  S
C1869      C1870   1.205       .  T
C1870      C1871   1.411       .  S
C1871      C1872   1.205       .  T
C1873      C1874   1.210       .  T
C1875      C1876   1.205       .  T
C1877      C1878   1.204       .  T
C1879      C1880   1.207       .  T
C1881      C1882   1.207       .  T
C1883      C1884   1.203       .  T
C1885      C1886   1.344       .  D
C1885      H1887   1.085       .  S
C1886      H1888   1.085       .  S
C1889      C1890   1.204       .  T
C1891      C1892   1.342       .  D
C1891      H1893   1.086       .  S
C1892      H1894   1.084       .  S
C1895      C1896   1.208       .  T
C1897      C1898   1.344       .  D
C1897      H1899   1.084       .  S
C1898      H1900   1.085       .  S
C1901      C1902   1.205       .  T
C1903      C1904   1.343       .  D
C1903      H1905   1.085       .  S
C1904      H1906   1.084       .  S
C1907      C1908   1.205       .  T
C1909      C1910   1.343       .  D
C1909      H1911   1.085       .  S
C1910      H1912   1.085       .  S
C1913      C1914   1.205       .  T
C1914      C1915   1.410       .  S
C1915      C1916   1.204       .  T
C1917      C1918   1.206       .  T
C1919      C1920   1.208       .  T
C1921      C1922   1.345       .  D
C1921      H1923   1.085       .  S
C1922      H1924   1.085       .  S
C1925      C1926   1.208       .  T
C1926      C1927   1.415       .  S
C1927      C1928   1.207       .  T
C1929      C1930   1.203       .  T
C1931      C1932   1.209       .  T
C1933      C1934   1.343       .  D
C1933      H1935   1.085       .  S
C1934      H1936   1.085       .  S
C1937      C1938   1.201       .  T
C1939      C1940   1.341       .  D
C1939      H1941   1.085       .  S
C1940      H1942   1.085       .  S
C1943      C1944   1.202       .  T
C1944      C1945   1.405       .  S
C1945      C1946   1.202       .  T
C1947      C1948   1.207       .  T
C1949      C1950   1.340       .  D
C1949      H1951   1.085       .  S
C1950      H1952   1.086       .  S
C1953      C1954   1.205       .  T
C1954      C1955   1.410       .  S
C1955      C1956   1.205       .  T
C1957      C1958   1.342       .  D
C1957      H1959   1.085       .  S
C1958      H1960   1.084       .  S
C1961      C1962   1.206       .  T
C1963      C1964   1.343       .  D
C1963      H1965   1.086       .  S
C1964      H1966   1.085       .  S
C1967      C1968   1.205       .  T
C1968      C1969   1.411       .  S
C1969      C1970   1.205       .  T
C1971      C1972   1.207       .  T
C1973      C1974   1.342       .  D
C1973      H1975   1.086       .  S
C1974      H1976   1.086       .  S
C1977      C1978   1.205       .  T
C1978      C1979   1.411       .  S
C1979      C1980   1.206       .  T
