geometry optimzed in LAMMPS
_audit_creation_date              2020-11-30 
_audit_creation_method            'lammps2cif' 
_symmetry_space_group_name_H-M    'P1' 
_symmetry_Int_Tables_number       1 
_symmetry_cell_setting            triclinic 
loop_ 
_symmetry_equiv_pos_as_xyz 
  x,y,z 
_cell_length_a                    32.09801732 
_cell_length_b                    32.09809676010469 
_cell_length_c                    32.0981292304373 
_cell_angle_alpha                 89.99970229441135 
_cell_angle_beta                  90.00002866740964 
_cell_angle_gamma                 90.00014633602856 
loop_ 
_atom_site_label 
_atom_site_type_symbol 
_atom_site_fract_x 
_atom_site_fract_y 
_atom_site_fract_z 
_atom_site_charge 
C1          C  0.03643974  0.97691208  0.98750744     0.04800
C2          C  0.02318381  0.01251812  0.96373643     0.04800
C3          C  0.98757274  0.03629373  0.97698575     0.04800
C4          C  0.96380233  0.02303523  0.01259948     0.04800
C5          C  0.97705369  0.98742851  0.03637044     0.04800
C6          C  0.01266935  0.96365971  0.02312269     0.04800
O7          O  0.02552303  0.16203294  0.85049387    -0.77700
O8          O  0.97467957  0.33789881  0.85043822    -0.77700
O9          O  0.93062471  0.25927894  0.81609361    -0.77700
O10         O  0.06957494  0.24062625  0.81607216    -0.77600
O11         O  0.90662900  0.29267194  0.86873924    -0.77800
O12         O  0.09357868  0.20726719  0.86873725    -0.77700
O13         O  0.01389570  0.30176211  0.80641036    -0.77700
O14         O  0.98629227  0.19814226  0.80645701    -0.77700
C15         C  0.01030475  0.16859774  0.81443041     1.12000
C16         C  0.98988565  0.33131317  0.81437277     1.11900
C17         C  0.90100932  0.27893957  0.83214958     1.12100
C18         C  0.09919299  0.22097789  0.83213853     1.11900
O19         O  0.05192871  0.23619601  0.94353584    -0.77700
O20         O  0.94829861  0.26379834  0.94354949    -0.77700
O21         O  0.95740526  0.15649814  0.88128088    -0.77700
O22         O  0.04281061  0.34344494  0.88119548    -0.77600
O23         O  0.00944427  0.31946070  0.93386538    -0.77700
O24         O  0.99079239  0.18051482  0.93392183    -0.77700
O25         O  0.08804491  0.27540265  0.89948217    -0.77600
O26         O  0.91217404  0.22455614  0.89953526    -0.77700
Co27       Co  0.03675184  0.20071883  0.89834369     1.51500
Co28       Co  0.96346565  0.29924225  0.89832200     1.51700
Co29       Co  0.95083926  0.21332183  0.85166693     1.51600
Co30       Co  0.04936440  0.28660614  0.85161939     1.51500
O31         O  0.00010504  0.24997231  0.87498846    -1.39600
C32         C  0.08148037  0.26019854  0.93555125     1.12000
C33         C  0.91875412  0.23977563  0.93559523     1.12100
C34         C  0.97113351  0.15089101  0.91787585     1.12000
C35         C  0.02909958  0.34907110  0.91779283     1.12000
O36         O  0.85054255  0.02535323  0.16209517    -0.77700
O37         O  0.85053392  0.97454528  0.33798604    -0.77700
O38         O  0.81615892  0.93048770  0.25937192    -0.77700
O39         O  0.81612485  0.06941083  0.24069922    -0.77600
O40         O  0.86880825  0.90649320  0.29276206    -0.77800
O41         O  0.86877666  0.09341591  0.20731902    -0.77700
O42         O  0.80648855  0.01374690  0.30185581    -0.77700
O43         O  0.80651158  0.98613280  0.19822020    -0.77700
C44         C  0.81447985  0.01013749  0.16866794     1.12000
C45         C  0.81446535  0.98974778  0.33141282     1.11900
C46         C  0.83221527  0.90087726  0.27903698     1.12100
C47         C  0.83218230  0.09902597  0.22103946     1.11900
O48         O  0.94358933  0.05178427  0.23624268    -0.77700
O49         O  0.94361601  0.94815221  0.26385729    -0.77700
O50         O  0.88133754  0.95723958  0.15657403    -0.77700
O51         O  0.88128677  0.04267868  0.34350364    -0.77600
O52         O  0.93394939  0.00930865  0.31950925    -0.77700
O53         O  0.93397594  0.99063488  0.18058311    -0.77700
O54         O  0.89954085  0.08790657  0.27544749    -0.77600
O55         O  0.89958917  0.91201793  0.22464000    -0.77700
Co56       Co  0.89839413  0.03659468  0.20077636     1.51500
Co57       Co  0.89840061  0.96332626  0.29931262     1.51700
Co58       Co  0.85172456  0.95068459  0.21340243     1.51600
Co59       Co  0.85168842  0.04921903  0.28667426     1.51500
O60         O  0.87505164  0.99995606  0.25004188    -1.39600
C61         C  0.93560760  0.08134200  0.26023708     1.12000
C62         C  0.93565108  0.91859548  0.23985582     1.12100
C63         C  0.91793003  0.97097183  0.15096536     1.12000
C64         C  0.91788269  0.02896380  0.34912178     1.12000
C65         C  0.96368676  0.97689722  0.48749847     0.04800
C66         C  0.97693810  0.01251297  0.46373573     0.04800
C67         C  0.01254649  0.03628825  0.47699104     0.04800
C68         C  0.03631516  0.02302861  0.51260230     0.04800
C69         C  0.02306517  0.98741684  0.53636953     0.04800
C70         C  0.98745556  0.96364354  0.52311358     0.04800
O71         O  0.02545744  0.83789106  0.64956862    -0.77700
O72         O  0.97464537  0.66199044  0.64946268    -0.77700
O73         O  0.93059867  0.74058688  0.68391562    -0.77700
O74         O  0.06951320  0.75924286  0.68394205    -0.77600
O75         O  0.90659773  0.70723132  0.63124581    -0.77800
O76         O  0.09351912  0.79266857  0.63131818    -0.77700
O77         O  0.01385080  0.69808561  0.69353137    -0.77700
O78         O  0.98624910  0.80174183  0.69358923    -0.77700
C79         C  0.01024237  0.83130720  0.68562954     1.12000
C80         C  0.98985192  0.66853600  0.68553275     1.11900
C81         C  0.90098437  0.72093249  0.66784933     1.12100
C82         C  0.09912902  0.77891976  0.66790438     1.11900
O83         O  0.05189875  0.76379122  0.55647968    -0.77700
O84         O  0.94825481  0.73619352  0.55645087    -0.77700
O85         O  0.95733734  0.84341220  0.61878604    -0.77700
O86         O  0.04277134  0.65648501  0.61869702    -0.77600
O87         O  0.00939628  0.68052513  0.56605971    -0.77700
O88         O  0.99073452  0.81943378  0.56613176    -0.77700
O89         O  0.08801410  0.72455658  0.60050599    -0.77600
O90         O  0.91211368  0.77536611  0.60050873    -0.77700
Co91       Co  0.03670082  0.79923011  0.60169886     1.51500
Co92       Co  0.96342500  0.70070136  0.60163326     1.51700
Co93       Co  0.95079186  0.78657577  0.64837269     1.51600
Co94       Co  0.04932252  0.71329472  0.64834344     1.51500
O95         O  0.00006173  0.74995064  0.62501374    -1.39600
C96         C  0.08145669  0.73979253  0.56444967     1.12000
C97         C  0.91868578  0.76017040  0.56443785     1.12100
C98         C  0.97105970  0.84903777  0.58219216     1.12000
C99         C  0.02904027  0.65089029  0.58210128     1.12000
O100        O  0.16218809  0.85044199  0.02546674    -0.77700
O101        O  0.33806246  0.85040451  0.97462333    -0.77700
O102        O  0.25943829  0.81602225  0.93057864    -0.77700
O103        O  0.24079041  0.81603859  0.06952108    -0.77600
O104        O  0.29282601  0.86866411  0.90656533    -0.77800
O105        O  0.20741999  0.86870190  0.09351439    -0.77700
O106        O  0.30193437  0.80637965  0.01385053    -0.77700
O107        O  0.19830505  0.80639636  0.98625469    -0.77700
C108        C  0.16875678  0.81437446  0.01026061     1.12000
C109        C  0.33148997  0.81434371  0.98984554     1.11900
C110        C  0.27909344  0.83207189  0.90095605     1.12100
C111        C  0.22113105  0.83210285  0.09913367     1.11900
O112        O  0.23633936  0.94350069  0.05184241    -0.77700
O113        O  0.26393769  0.94348438  0.94820696    -0.77700
O114        O  0.15665023  0.88120794  0.95734212    -0.77700
O115        O  0.34359379  0.88118451  0.04274732    -0.77600
O116        O  0.31960431  0.93383682  0.00935586    -0.77700
O117        O  0.18066412  0.93386113  0.99071097    -0.77700
O118        O  0.27554631  0.89946352  0.08797551    -0.77600
O119        O  0.22470407  0.89944820  0.91210028    -0.77700
Co120      Co  0.20086964  0.89829833  0.03668075     1.51500
Co121      Co  0.29939225  0.89827132  0.96339088     1.51700
Co122      Co  0.21347702  0.85159565  0.95078411     1.51600
Co123      Co  0.28676302  0.85159408  0.04930646     1.51500
O124        O  0.25012639  0.87494052  0.00003967    -1.39600
C125        C  0.26033795  0.93552902  0.08139889     1.12000
C126        C  0.23992248  0.93551186  0.91866274     1.12100
C127        C  0.15104213  0.91780536  0.97106048     1.12000
C128        C  0.34921374  0.91777599  0.02902169     1.12000
O129        O  0.01384332  0.80177224  0.19358400    -0.77700
O130        O  0.98621981  0.69812044  0.19351475    -0.77700
O131        O  0.90660450  0.79271791  0.13126466    -0.77700
O132        O  0.09351338  0.70724776  0.13128557    -0.77600
O133        O  0.93058952  0.75929258  0.18389721    -0.77800
O134        O  0.06949724  0.74061280  0.18394160    -0.77700
O135        O  0.02544204  0.66201572  0.14946989    -0.77700
O136        O  0.97466396  0.83792790  0.14954313    -0.77700
C137        C  0.98986410  0.83134491  0.18560993     1.12000
C138        C  0.01021719  0.66856589  0.18553180     1.11900
C139        C  0.90098527  0.77897788  0.16785203     1.12100
C140        C  0.09911840  0.72095986  0.16788610     1.11900
O141        O  0.08802172  0.77538457  0.10054411    -0.77700
O142        O  0.91210939  0.72460822  0.10044994    -0.77700
O143        O  0.00942662  0.81945484  0.06612623    -0.77700
O144        O  0.99074344  0.68055009  0.06604571    -0.77600
O145        O  0.95732803  0.65652451  0.11866474    -0.77700
O146        O  0.04279730  0.84343604  0.11879513    -0.77700
O147        O  0.05190084  0.73620975  0.05647030    -0.77600
O148        O  0.94825827  0.76383055  0.05644211    -0.77700
Co149      Co  0.04932183  0.78660060  0.14838682     1.51500
Co150      Co  0.95077674  0.71333714  0.14830760     1.51700
Co151      Co  0.96343793  0.79926608  0.10166923     1.51600
Co152      Co  0.03669819  0.70072264  0.10164574     1.51500
O153        O  0.00005789  0.74998069  0.12500342    -1.39600
C154        C  0.08146744  0.76018582  0.06447160     1.12000
C155        C  0.91869053  0.73983975  0.06439515     1.12100
C156        C  0.02908994  0.84906127  0.08219533     1.12000
C157        C  0.97107668  0.65092352  0.08207601     1.12000
C158        C  0.27311412  0.78624600  0.23752712     0.04800
C159        C  0.23750708  0.77300447  0.21374261     0.04800
C160        C  0.21372379  0.73739313  0.22698515     0.04800
C161        C  0.22696730  0.71361051  0.26259087     0.04800
C162        C  0.26257855  0.72684534  0.28637256     0.04800
C163        C  0.28635678  0.76246215  0.27313379     0.04800
O164        O  0.19826101  0.69347940  0.48625690    -0.77700
O165        O  0.30189634  0.69336487  0.51384302    -0.77700
O166        O  0.20730127  0.63117363  0.59351454    -0.77700
O167        O  0.29270188  0.63109909  0.40656527    -0.77600
O168        O  0.24074402  0.68378906  0.56951467    -0.77800
O169        O  0.25938705  0.68378202  0.43058734    -0.77700
O170        O  0.33796693  0.64929523  0.47461392    -0.77700
O171        O  0.16208617  0.64947521  0.52546028    -0.77700
C172        C  0.16869445  0.68553506  0.51025185     1.12000
C173        C  0.33144156  0.68536180  0.48983920     1.11900
C174        C  0.22106013  0.66775541  0.59912711     1.12100
C175        C  0.27901591  0.66770997  0.40095922     1.11900
O176        O  0.22455646  0.60039243  0.41210791    -0.77700
O177        O  0.27539946  0.60032961  0.58798507    -0.77700
O178        O  0.18048473  0.56603015  0.49071725    -0.77700
O179        O  0.31942238  0.56589256  0.50935286    -0.77600
O180        O  0.34347425  0.61851643  0.54274022    -0.77700
O181        O  0.15653232  0.61870829  0.45733797    -0.77700
O182        O  0.26372488  0.55631262  0.44822930    -0.77600
O183        O  0.23613034  0.55633051  0.55187213    -0.77700
Co184      Co  0.21338573  0.64826045  0.45078971     1.51500
Co185      Co  0.28667445  0.64817560  0.54930688     1.51700
Co186      Co  0.20071724  0.60157552  0.53668850     1.51600
Co187      Co  0.29923826  0.60148015  0.46339293     1.51500
O188        O  0.25000534  0.62487106  0.50004692    -1.39600
C189        C  0.23973343  0.56431254  0.41867453     1.12000
C190        C  0.26015237  0.56427921  0.58141770     1.12100
C191        C  0.15089198  0.58211136  0.47104363     1.12000
C192        C  0.34906144  0.58192586  0.52899626     1.12000
C193        C  0.22699474  0.78623035  0.76259387     0.04800
C194        C  0.21373359  0.76246306  0.72698405     0.04800
C195        C  0.23750492  0.72685137  0.71372367     0.04800
C196        C  0.27311929  0.71359954  0.73748600     0.04800
C197        C  0.28638000  0.73736659  0.77309644     0.04800
C198        C  0.26261031  0.77298024  0.78635690     0.04800
O199        O  0.41213700  0.77529922  0.89954581    -0.77700
O200        O  0.58801655  0.72448436  0.89950586    -0.77700
O201        O  0.50942233  0.68040896  0.93388088    -0.77700
O202        O  0.49074789  0.81934669  0.93394544    -0.77600
O203        O  0.54280136  0.65644047  0.88121103    -0.77800
O204        O  0.45736420  0.84336857  0.88130560    -0.77700
O205        O  0.55189037  0.76367711  0.94356220    -0.77700
O206        O  0.44826104  0.73605639  0.94356085    -0.77700
C207        C  0.41871175  0.76007125  0.93560381     1.12000
C208        C  0.58144189  0.73967520  0.93557870     1.11900
C209        C  0.52909343  0.65080848  0.91780840     1.12100
C210        C  0.47109622  0.84897389  0.91789888     1.11900
O211        O  0.48626140  0.80174103  0.80648139    -0.77700
O212        O  0.51387662  0.69812463  0.80642701    -0.77700
O213        O  0.40661186  0.70718199  0.86874482    -0.77700
O214        O  0.59354436  0.79261836  0.86876669    -0.77600
O215        O  0.56953515  0.75927113  0.81609822    -0.77700
O216        O  0.43060358  0.74059069  0.81610599    -0.77700
O217        O  0.52548601  0.83784809  0.85052611    -0.77600
O218        O  0.47467223  0.66196769  0.85044738    -0.77700
Co219      Co  0.45080618  0.78654794  0.85168536     1.51500
Co220      Co  0.54934036  0.71328194  0.85163885     1.51700
Co221      Co  0.46344390  0.70061988  0.89833281     1.51600
Co222      Co  0.53671478  0.79915722  0.89837207     1.51500
O223        O  0.50007473  0.74990192  0.87500906    -1.39600
C224        C  0.51027243  0.83128601  0.81446035     1.12000
C225        C  0.48988402  0.66855847  0.81438517     1.12100
C226        C  0.40099144  0.72092084  0.83215715     1.12000
C227        C  0.59915623  0.77891441  0.83216497     1.12000
C228        C  0.73752368  0.27292854  0.71370461     0.04800
C229        C  0.77312925  0.28620466  0.73746656     0.04800
C230        C  0.78640316  0.26245666  0.77308265     0.04800
C231        C  0.76265038  0.22683876  0.78635383     0.04800
C232        C  0.72703778  0.21356870  0.76259798     0.04800
C233        C  0.71376946  0.23731445  0.72697960     0.04800
O234        O  0.89955011  0.41194348  0.77533408    -0.77700
O235        O  0.89952845  0.58783469  0.72452808    -0.77700
O236        O  0.93388774  0.50923401  0.68044918    -0.77700
O237        O  0.93399039  0.49055060  0.81936643    -0.77600
O238        O  0.88122140  0.54262104  0.65648483    -0.77800
O239        O  0.88135626  0.45717622  0.84341291    -0.77700
O240        O  0.94359213  0.55169108  0.76369433    -0.77700
O241        O  0.94356271  0.44806409  0.73608569    -0.77700
C242        C  0.93560399  0.41851072  0.76009575     1.12000
C243        C  0.93560337  0.58125614  0.73971283     1.11900
C244        C  0.91781595  0.52890793  0.65085210     1.12100
C245        C  0.91795223  0.47090792  0.84900274     1.11900
O246        O  0.80651621  0.48609195  0.80182488    -0.77700
O247        O  0.80643351  0.51370827  0.69817995    -0.77700
O248        O  0.86873025  0.40644131  0.70722404    -0.77700
O249        O  0.86880970  0.59335456  0.79267041    -0.77600
O250        O  0.81612862  0.56935701  0.75933217    -0.77700
O251        O  0.81610703  0.43043644  0.74065776    -0.77700
O252        O  0.85058994  0.52530331  0.83790997    -0.77600
O253        O  0.85044334  0.47450133  0.66201495    -0.77700
Co254      Co  0.85170631  0.45062623  0.78660508     1.51500
Co255      Co  0.85165589  0.54916283  0.71333206     1.51700
Co256      Co  0.89833231  0.46326200  0.70065918     1.51600
Co257      Co  0.89841592  0.53652367  0.79919451     1.51500
O258        O  0.87502537  0.49989140  0.74994833    -1.39600
C259        C  0.81451838  0.51009609  0.83136997     1.12000
C260        C  0.81438151  0.48970911  0.66861688     1.12100
C261        C  0.83214982  0.40082702  0.72097821     1.12000
C262        C  0.83220459  0.59896975  0.77897762     1.12000
O263        O  0.01389758  0.19811773  0.30648141    -0.77700
O264        O  0.98627810  0.30172905  0.30640793    -0.77700
O265        O  0.90659802  0.20725537  0.36875542    -0.77700
O266        O  0.09354163  0.29268333  0.36874078    -0.77600
O267        O  0.93060967  0.24059466  0.31608352    -0.77800
O268        O  0.06955841  0.25926548  0.31610447    -0.77700
O269        O  0.02548051  0.33789050  0.35042631    -0.77700
O270        O  0.97465868  0.16201977  0.35052185    -0.77700
C271        C  0.98987903  0.16857769  0.31445820     1.12000
C272        C  0.01027218  0.33129394  0.31436325     1.11900
C273        C  0.90098491  0.22095780  0.33215246     1.12100
C274        C  0.09916655  0.27894160  0.33215504     1.11900
O275        O  0.08800842  0.22456999  0.39955605    -0.77700
O276        O  0.91213163  0.27539317  0.39948639    -0.77700
O277        O  0.00938802  0.18052235  0.43394505    -0.77700
O278        O  0.99072089  0.31946593  0.43386013    -0.77600
O279        O  0.95735067  0.34343189  0.38118350    -0.77700
O280        O  0.04277925  0.15649692  0.38131255    -0.77700
O281        O  0.05187995  0.26382179  0.44355844    -0.77600
O282        O  0.94825315  0.23620117  0.44354786    -0.77700
Co283      Co  0.04934580  0.21331507  0.35168947     1.51500
Co284      Co  0.95081053  0.28658513  0.35161972     1.51700
Co285      Co  0.96342756  0.20071500  0.39836354     1.51600
Co286      Co  0.03670341  0.29924886  0.39832049     1.51500
O287        O  0.00007353  0.24996526  0.37499937    -1.39600
C288        C  0.08143208  0.23980718  0.43560986     1.12000
C289        C  0.91870388  0.26020367  0.43556072     1.12100
C290        C  0.02904052  0.15089330  0.41790379     1.12000
C291        C  0.97105163  0.34906519  0.41778325     1.12000
C292        C  0.27316460  0.21365591  0.26257680     0.04800
C293        C  0.23755129  0.22690866  0.28634377     0.04800
C294        C  0.21377775  0.26251759  0.27307845     0.04800
C295        C  0.22703375  0.28627805  0.23746413     0.04800
C296        C  0.26264773  0.27302665  0.21369836     0.04800
C297        C  0.28642005  0.23741577  0.22696207     0.04800
O298        O  0.19828276  0.30644031  0.01380051    -0.77700
O299        O  0.30189852  0.30637013  0.98621787    -0.77700
O300        O  0.20744410  0.36871467  0.90651488    -0.77700
O301        O  0.29282817  0.36869506  0.09347483    -0.77600
O302        O  0.24077728  0.31604356  0.93053803    -0.77800
O303        O  0.25941848  0.31605841  0.06947871    -0.77700
O304        O  0.33805340  0.35038842  0.02542570    -0.77700
O305        O  0.16219016  0.35048532  0.97456279    -0.77700
C306        C  0.16874056  0.31442164  0.98978588     1.12000
C307        C  0.33145871  0.31432548  0.01021654     1.11900
C308        C  0.22114458  0.33210927  0.90090906     1.12100
C309        C  0.27908721  0.33210701  0.09909333     1.11900
O310        O  0.22471645  0.39950608  0.08792715    -0.77700
O311        O  0.27558050  0.39944455  0.91206457    -0.77700
O312        O  0.18068621  0.43390603  0.00929772    -0.77700
O313        O  0.31963842  0.43382355  0.99066665    -0.77600
O314        O  0.34360916  0.38114743  0.95729871    -0.77700
O315        O  0.15665696  0.38127028  0.04268339    -0.77700
O316        O  0.26397486  0.44351622  0.05181401    -0.77600
O317        O  0.23638224  0.44350970  0.94817429    -0.77700
Co318      Co  0.21347247  0.35164423  0.04925814     1.51500
Co319      Co  0.28676387  0.35158068  0.95074627     1.51700
Co320      Co  0.20089085  0.39832536  0.96334109     1.51600
Co321      Co  0.29940778  0.39828051  0.03664196     1.51500
O322        O  0.25013305  0.37496088  0.99999854    -1.39600
C323        C  0.23994904  0.43556284  0.08135600     1.12000
C324        C  0.26039157  0.43551939  0.91863101     1.12100
C325        C  0.15105749  0.41786138  0.02894706     1.12000
C326        C  0.34923931  0.41774593  0.97100256     1.12000
C327        C  0.23759831  0.27299776  0.78631951     0.04800
C328        C  0.21381666  0.23738684  0.77307131     0.04800
C329        C  0.22706586  0.21360166  0.73747169     0.04800
C330        C  0.26267866  0.22684068  0.71369354     0.04800
C331        C  0.28645900  0.26245390  0.72693810     0.04800
C332        C  0.27321657  0.28623201  0.76254533     0.04800
O333        O  0.58808754  0.27517628  0.60046211    -0.77700
O334        O  0.41216256  0.22443376  0.60054449    -0.77700
O335        O  0.49075257  0.18033959  0.56617104    -0.77700
O336        O  0.50946408  0.31922667  0.56600440    -0.77600
O337        O  0.45736646  0.15639076  0.61884579    -0.77800
O338        O  0.54287092  0.34328285  0.61861382    -0.77700
O339        O  0.44830518  0.26356583  0.55645147    -0.77700
O340        O  0.55194449  0.23593113  0.55646965    -0.77700
C341        C  0.58151421  0.25992202  0.56441590     1.12000
C342        C  0.41873054  0.23960415  0.56446214     1.11900
C343        C  0.47107130  0.15074949  0.58224770     1.12100
C344        C  0.52911880  0.34886701  0.58202412     1.11900
O345        O  0.51395232  0.30175460  0.69348184    -0.77700
O346        O  0.48631344  0.19809855  0.69362073    -0.77700
O347        O  0.59356098  0.20708308  0.63132303    -0.77700
O348        O  0.40667414  0.29258735  0.63123684    -0.77600
O349        O  0.43068388  0.25926269  0.68392053    -0.77700
O350        O  0.56957490  0.24055691  0.68392561    -0.77700
O351        O  0.47474395  0.33783048  0.64939956    -0.77600
O352        O  0.52548813  0.16190265  0.64961105    -0.77700
Co353      Co  0.54940718  0.28649171  0.64829816     1.51500
Co354      Co  0.45085009  0.21324480  0.64840371     1.51700
Co355      Co  0.53673769  0.20053085  0.60171530     1.51600
Co356      Co  0.46349668  0.29908627  0.60160378     1.51500
O357        O  0.50012528  0.24984056  0.62500703    -1.39600
C358        C  0.48996669  0.33131158  0.68546764     1.12000
C359        C  0.51028949  0.16851833  0.68567314     1.12100
C360        C  0.59917672  0.22085097  0.66790082     1.12000
C361        C  0.40106397  0.27890059  0.66784613     1.12000
O362        O  0.30656971  0.01377534  0.19820019    -0.77700
O363        O  0.30649210  0.98618509  0.30181037    -0.77700
O364        O  0.36881404  0.90646359  0.20735870    -0.77700
O365        O  0.36884466  0.09342878  0.29274611    -0.77600
O366        O  0.31614925  0.93049086  0.24069708    -0.77800
O367        O  0.31620217  0.06944452  0.25933847    -0.77700
O368        O  0.35051913  0.02538291  0.33796613    -0.77700
O369        O  0.35060309  0.97452586  0.16210665    -0.77700
C370        C  0.31454413  0.98976144  0.16865695     1.12000
C371        C  0.31445282  0.01018296  0.33137007     1.11900
C372        C  0.33221224  0.90085972  0.22106660     1.12100
C373        C  0.33225820  0.09905192  0.27900900     1.11900
O374        O  0.39965709  0.08787404  0.22463747    -0.77700
O375        O  0.39954646  0.91200434  0.27549847    -0.77700
O376        O  0.43403460  0.00923308  0.18060264    -0.77700
O377        O  0.43394595  0.99060096  0.31955254    -0.77600
O378        O  0.38126057  0.95724942  0.34352563    -0.77700
O379        O  0.38140935  0.04264022  0.15657786    -0.77700
O380        O  0.44365758  0.05174560  0.26389115    -0.77600
O381        O  0.44361936  0.94810155  0.23629660    -0.77700
Co382      Co  0.35178403  0.04921815  0.21339206     1.51500
Co383      Co  0.35169313  0.95070017  0.28668019     1.51700
Co384      Co  0.39843919  0.96328536  0.20080609     1.51600
Co385      Co  0.39841606  0.03658626  0.29932276     1.51500
O386        O  0.37508607  0.99994823  0.25004884    -1.39600
C387        C  0.43571281  0.08129186  0.23986834     1.12000
C388        C  0.43562158  0.91855755  0.26030336     1.12100
C389        C  0.41799781  0.02889671  0.15097810     1.12000
C390        C  0.41786241  0.97094444  0.34915562     1.12000
C391        C  0.48744289  0.03615959  0.52316297     0.04800
C392        C  0.46367402  0.02291015  0.48754653     0.04800
C393        C  0.47692860  0.98730402  0.46377614     0.04800
C394        C  0.51254127  0.96352808  0.47702683     0.04800
C395        C  0.53631573  0.97679055  0.51263472     0.04800
C396        C  0.52306428  0.01239554  0.53640757     0.04800
O397        O  0.44827183  0.76358261  0.44360139    -0.77700
O398        O  0.55189929  0.73598413  0.44355774    -0.77700
O399        O  0.45736322  0.65637652  0.38119114    -0.77700
O400        O  0.54275553  0.84332771  0.38134516    -0.77600
O401        O  0.49074924  0.68032802  0.43386465    -0.77800
O402        O  0.50939100  0.81928583  0.43398858    -0.77700
O403        O  0.58800012  0.77526148  0.39955315    -0.77700
O404        O  0.41214075  0.72440098  0.39953844    -0.77700
C405        C  0.41872243  0.73957867  0.43561632     1.12000
C406        C  0.58143369  0.76001992  0.43560683     1.11900
C407        C  0.47107539  0.65073257  0.41778531     1.12100
C408        C  0.52903060  0.84892264  0.41794275     1.11900
O409        O  0.47462245  0.83780235  0.35058807    -0.77700
O410        O  0.52548199  0.66194263  0.35040940    -0.77700
O411        O  0.43058255  0.75923483  0.31614023    -0.77700
O412        O  0.56953316  0.74058584  0.31609886    -0.77600
O413        O  0.59354114  0.70715946  0.36871872    -0.77700
O414        O  0.40658193  0.79254803  0.36883388    -0.77700
O415        O  0.51384594  0.80172428  0.30651744    -0.77600
O416        O  0.48625304  0.69811029  0.30641903    -0.77700
Co417      Co  0.46342031  0.79908864  0.39842179     1.51500
Co418      Co  0.53671420  0.70056861  0.39831448     1.51700
Co419      Co  0.45080185  0.71323266  0.35165147     1.51600
Co420      Co  0.54931920  0.78652002  0.35170434     1.51500
O421        O  0.50006600  0.74985299  0.37502505    -1.39600
C422        C  0.48983567  0.83126539  0.31451776     1.12000
C423        C  0.51026544  0.66855407  0.31435241     1.12100
C424        C  0.40096357  0.77886572  0.33222515     1.12000
C425        C  0.59915228  0.72091580  0.33213677     1.12000
O426        O  0.55655636  0.94809335  0.73627027    -0.77700
O427        O  0.55654882  0.05171763  0.76389412    -0.77700
O428        O  0.61887591  0.95717071  0.84351129    -0.77700
O429        O  0.61878834  0.04264165  0.65659311    -0.77600
O430        O  0.56621554  0.99054785  0.81952299    -0.77800
O431        O  0.56615794  0.00924716  0.68061847    -0.77700
O432        O  0.60056807  0.08785996  0.72467700    -0.77700
O433        O  0.60061113  0.91195585  0.77545262    -0.77700
C434        C  0.56454160  0.91852704  0.76025210     1.12000
C435        C  0.56451155  0.08128633  0.73990719     1.11900
C436        C  0.58228063  0.97088643  0.84913151     1.12100
C437        C  0.58219635  0.02890459  0.65099253     1.11900
O438        O  0.64957802  0.97452274  0.66209326    -0.77700
O439        O  0.64963797  0.02529771  0.83800075    -0.77700
O440        O  0.68401958  0.93045755  0.74068959    -0.77700
O441        O  0.68400563  0.06936744  0.75937536    -0.77600
O442        O  0.63137052  0.09335766  0.79279280    -0.77700
O443        O  0.63135934  0.90645832  0.70731868    -0.77700
O444        O  0.69362602  0.01373638  0.69820435    -0.77600
O445        O  0.69367514  0.98610238  0.80185624    -0.77700
Co446      Co  0.60174124  0.96328119  0.70079129     1.51500
Co447      Co  0.60176813  0.03653005  0.79933629     1.51700
Co448      Co  0.64846793  0.95063866  0.78667638     1.51600
Co449      Co  0.64842216  0.04918655  0.71341286     1.51500
O450        O  0.62510334  0.99990991  0.75005389    -1.39600
C451        C  0.68564335  0.98973743  0.66865105     1.12000
C452        C  0.68570512  0.01009706  0.83141735     1.12100
C453        C  0.66795625  0.90084544  0.72103215     1.12000
C454        C  0.66795909  0.09897234  0.77905691     1.12000
C455        C  0.52321048  0.98734093  0.96373410     0.04800
C456        C  0.48759711  0.96357205  0.97698782     0.04800
C457        C  0.46383150  0.97683228  0.01260099     0.04800
C458        C  0.47709039  0.01243869  0.03637021     0.04800
C459        C  0.51269828  0.03621145  0.02310933     0.04800
C460        C  0.53646454  0.02295722  0.98749335     0.04800
O461        O  0.44824726  0.23605594  0.05645431    -0.77700
O462        O  0.55189500  0.26366769  0.05642921    -0.77700
O463        O  0.45735901  0.34335977  0.11866653    -0.77700
O464        O  0.54282267  0.15645049  0.11876012    -0.77600
O465        O  0.49074244  0.31932532  0.06603144    -0.77800
O466        O  0.50941903  0.18042331  0.06610672    -0.77700
O467        O  0.58803899  0.22450293  0.10049144    -0.77700
O468        O  0.41212704  0.27528484  0.10048077    -0.77700
C469        C  0.41868999  0.26005518  0.06442307     1.12000
C470        C  0.58146872  0.23969761  0.06441968     1.11900
C471        C  0.47109186  0.34895658  0.08207141     1.12100
C472        C  0.52909887  0.15082237  0.08216790     1.11900
O473        O  0.47469757  0.16195174  0.14953946    -0.77700
O474        O  0.52548303  0.33786857  0.14943450    -0.77700
O475        O  0.43063787  0.24059935  0.18391554    -0.77700
O476        O  0.56953472  0.25927604  0.18389657    -0.77600
O477        O  0.59353797  0.29263661  0.13123035    -0.77700
O478        O  0.40662938  0.20717424  0.13129380    -0.77700
O479        O  0.51389698  0.19810640  0.19356265    -0.77600
O480        O  0.48628686  0.30176444  0.19350345    -0.77700
Co481      Co  0.46344858  0.20061713  0.10167295     1.51500
Co482      Co  0.53671399  0.29915747  0.10160938     1.51700
Co483      Co  0.45081746  0.28655080  0.14831668     1.51600
Co484      Co  0.54935611  0.21328442  0.14835035     1.51500
O485        O  0.50008244  0.24990184  0.12498767    -1.39600
C486        C  0.48991738  0.16853055  0.18559927     1.12000
C487        C  0.51027520  0.33132210  0.18550387     1.12100
C488        C  0.40102002  0.22092578  0.16787885     1.12000
C489        C  0.59914913  0.27893458  0.16783481     1.12000
O490        O  0.16207231  0.14949193  0.47461752    -0.77700
O491        O  0.33796648  0.14936850  0.52543783    -0.77700
O492        O  0.25937700  0.18380483  0.56949130    -0.77700
O493        O  0.24072176  0.18386922  0.43057139    -0.77600
O494        O  0.29272953  0.13112502  0.59347648    -0.77800
O495        O  0.20730003  0.13125049  0.40655082    -0.77700
O496        O  0.30186962  0.19344719  0.48624468    -0.77700
O497        O  0.19821938  0.19349837  0.51384473    -0.77700
C498        C  0.16865560  0.18554760  0.48984507     1.12000
C499        C  0.33141801  0.18544346  0.51024260     1.11900
C500        C  0.27903685  0.16773130  0.59909861     1.12100
C501        C  0.22105356  0.16783601  0.40094730     1.11900
O502        O  0.23617036  0.05640613  0.44815622    -0.77700
O503        O  0.26376843  0.05634289  0.55179132    -0.77700
O504        O  0.15654934  0.11869017  0.54273184    -0.77700
O505        O  0.34348379  0.11862345  0.45730602    -0.77600
O506        O  0.31944333  0.06597334  0.49065932    -0.77700
O507        O  0.18052367  0.06604422  0.50931930    -0.77700
O508        O  0.27541394  0.10044033  0.41205799    -0.77600
O509        O  0.22459586  0.10038891  0.58794713    -0.77700
Co510      Co  0.20073171  0.10162198  0.46336284     1.51500
Co511      Co  0.29925955  0.10153201  0.53663976     1.51700
Co512      Co  0.21338698  0.14826907  0.54928658     1.51600
Co513      Co  0.28666981  0.14826868  0.45075925     1.51500
O514        O  0.25001103  0.12492444  0.50000975    -1.39600
C515        C  0.26017880  0.06438207  0.41860790     1.12000
C516        C  0.23979047  0.06431921  0.58136199     1.12100
C517        C  0.15092324  0.08210192  0.52899975     1.12000
C518        C  0.34907828  0.08202406  0.47102431     1.12000
C519        C  0.77313442  0.78627969  0.26257062     0.04800
C520        C  0.73752142  0.77301346  0.28633253     0.04800
C521        C  0.71376159  0.73739955  0.27306266     0.04800
C522        C  0.72703105  0.71364542  0.23745043     0.04800
C523        C  0.76263776  0.72691547  0.21368378     0.04800
C524        C  0.78639489  0.76253088  0.22695134     0.04800
O525        O  0.60056610  0.58792413  0.27531181    -0.77700
O526        O  0.60057838  0.41202936  0.22450776    -0.77700
O527        O  0.56624156  0.49063599  0.18042591    -0.77700
O528        O  0.56609774  0.50931356  0.31933094    -0.77600
O529        O  0.61890946  0.45724119  0.15647453    -0.77800
O530        O  0.61872675  0.54268097  0.34339664    -0.77700
O531        O  0.55650544  0.44818039  0.26365464    -0.77700
O532        O  0.55655922  0.55181291  0.23604929    -0.77700
C533        C  0.56451658  0.58136717  0.26005809     1.12000
C534        C  0.56449883  0.41861266  0.23967901     1.11900
C535        C  0.58231574  0.47095471  0.15083553     1.12100
C536        C  0.58213197  0.52894642  0.34897533     1.11900
O537        O  0.69357417  0.51375553  0.30184128    -0.77700
O538        O  0.69369111  0.48614500  0.19819517    -0.77700
O539        O  0.63141182  0.59341891  0.20721163    -0.77700
O540        O  0.63127597  0.40649967  0.29265568    -0.77600
O541        O  0.68396989  0.43049954  0.25934046    -0.77700
O542        O  0.68401865  0.56941918  0.24066969    -0.77700
O543        O  0.64948168  0.47454635  0.33790710    -0.77600
O544        O  0.64969757  0.52535379  0.16201324    -0.77700
Co545      Co  0.64839745  0.54923116  0.28660198     1.51500
Co546      Co  0.64845912  0.45069618  0.21332932     1.51700
Co547      Co  0.60179922  0.53660337  0.20064068     1.51600
Co548      Co  0.60167093  0.46333556  0.29917201     1.51500
O549        O  0.62508393  0.49996979  0.24993727    -1.39600
C550        C  0.68555675  0.48975234  0.33138376     1.12000
C551        C  0.68575606  0.51014526  0.16863006     1.12100
C552        C  0.66798892  0.59902838  0.22097951     1.12000
C553        C  0.66788660  0.40088426  0.27897717     1.12000
C554        C  0.71374065  0.26251604  0.22693987     0.04800
C555        C  0.73751380  0.22690186  0.21369058     0.04800
C556        C  0.77311678  0.21364715  0.23746726     0.04800
C557        C  0.78637525  0.23741834  0.27307493     0.04800
C558        C  0.76260344  0.27303512  0.28632322     0.04800
C559        C  0.72699173  0.28628342  0.26255314     0.04800
C560        C  0.73752312  0.72683676  0.78632962     0.04800
C561        C  0.77313091  0.71358435  0.76255458     0.04800
C562        C  0.78638623  0.73735199  0.72694528     0.04800
C563        C  0.76261870  0.77296968  0.71369408     0.04800
C564        C  0.72701440  0.78622422  0.73747106     0.04800
C565        C  0.71375733  0.76245664  0.77307924     0.04800
O566        O  0.19363570  0.01370228  0.80184185    -0.77700
O567        O  0.19359919  0.98609292  0.69819726    -0.77700
O568        O  0.13131628  0.90645722  0.79275788    -0.77700
O569        O  0.13136073  0.09338756  0.70731608    -0.77600
O570        O  0.18396168  0.93044412  0.75935466    -0.77800
O571        O  0.18400901  0.06937110  0.74069258    -0.77700
O572        O  0.14956393  0.02531890  0.66208389    -0.77700
O573        O  0.14959000  0.97451158  0.83798122    -0.77700
C574        C  0.18565730  0.98971538  0.83140754     1.12000
C575        C  0.18562386  0.01009296  0.66864261     1.11900
C576        C  0.16790634  0.90083701  0.77902679     1.12100
C577        C  0.16795784  0.09899239  0.72103711     1.11900
O578        O  0.10059798  0.08788034  0.77544425    -0.77700
O579        O  0.10052374  0.91197859  0.72463999    -0.77700
O580        O  0.06617478  0.00927542  0.81950736    -0.77700
O581        O  0.06613401  0.99061443  0.68058729    -0.77600
O582        O  0.11876207  0.95720489  0.65657302    -0.77700
O583        O  0.11884026  0.04264619  0.84349637    -0.77700
O584        O  0.05653859  0.05176376  0.73624909    -0.77600
O585        O  0.05650325  0.94811723  0.76385834    -0.77700
Co586      Co  0.14844149  0.04918209  0.78666660     1.51500
Co587      Co  0.14838676  0.95064630  0.71339286     1.51700
Co588      Co  0.10172276  0.96329185  0.79930906     1.51600
Co589      Co  0.10172640  0.03656890  0.70077564     1.51500
O590        O  0.12506949  0.99992176  0.75003568    -1.39600
C591        C  0.06452972  0.08132435  0.76023494     1.12000
C592        C  0.06446405  0.91855516  0.73986213     1.12100
C593        C  0.08224327  0.02893509  0.84911587     1.12000
C594        C  0.08217271  0.97094684  0.65096795     1.12000
O595        O  0.73608226  0.44340243  0.55186928    -0.77700
O596        O  0.76371562  0.44346958  0.44823352    -0.77700
O597        O  0.84344600  0.38124046  0.54274733    -0.77700
O598        O  0.65653662  0.38104501  0.45727522    -0.77600
O599        O  0.81938939  0.43387301  0.50937848    -0.77800
O600        O  0.68047559  0.43371251  0.49067947    -0.77700
O601        O  0.72457108  0.39939631  0.41207810    -0.77700
O602        O  0.77535265  0.39940197  0.58798030    -0.77700
C603        C  0.76009598  0.43544997  0.58142116     1.12000
C604        C  0.73973625  0.43547758  0.41866691     1.11900
C605        C  0.84903030  0.41783671  0.52901692     1.12100
C606        C  0.65089305  0.41763834  0.47098656     1.11900
O607        O  0.66207105  0.35024816  0.52538626    -0.77700
O608        O  0.83796345  0.35048727  0.47461068    -0.77700
O609        O  0.74071902  0.31594394  0.56947262    -0.77700
O610        O  0.75941787  0.31600906  0.43054603    -0.77600
O611        O  0.79272563  0.36871058  0.40655557    -0.77700
O612        O  0.70725365  0.36854447  0.59347013    -0.77700
O613        O  0.69826958  0.30626864  0.48617729    -0.77600
O614        O  0.80188804  0.30639721  0.51381463    -0.77700
Co615      Co  0.70068587  0.39815525  0.53664996     1.51500
Co616      Co  0.79923264  0.39830296  0.46339566     1.51700
Co617      Co  0.78664886  0.35157104  0.54928869     1.51600
Co618      Co  0.71339773  0.35150779  0.45073770     1.51500
O619        O  0.74999234  0.37488463  0.50002133    -1.39600
C620        C  0.66869732  0.31419354  0.51017126     1.12000
C621        C  0.83143410  0.31441256  0.48981649     1.12100
C622        C  0.72102840  0.33196951  0.59908511     1.12000
C623        C  0.77904956  0.33209978  0.40093131     1.12000
C624        C  0.03627141  0.52304946  0.48737896     0.04800
C625        C  0.01250354  0.53630446  0.52299304     0.04800
C626        C  0.97688809  0.51253561  0.53623934     0.04800
C627        C  0.96363003  0.47692898  0.51246916     0.04800
C628        C  0.98740178  0.46367496  0.47685549     0.04800
C629        C  0.02301587  0.48744407  0.46360413     0.04800
O630        O  0.83807359  0.64954108  0.02538007    -0.77700
O631        O  0.66216299  0.64937764  0.97461968    -0.77700
O632        O  0.74073330  0.68384150  0.93054948    -0.77700
O633        O  0.75943199  0.68388774  0.06946265    -0.77600
O634        O  0.70739342  0.63115856  0.90655975    -0.77800
O635        O  0.79288188  0.63127703  0.09346163    -0.77700
O636        O  0.69825643  0.69345513  0.01381813    -0.77700
O637        O  0.80189645  0.69354405  0.98617793    -0.77700
C638        C  0.83146993  0.68559859  0.01016475     1.12000
C639        C  0.66870260  0.68544923  0.98982590     1.11900
C640        C  0.72108592  0.66776455  0.90093676     1.12100
C641        C  0.77911976  0.66785791  0.09907500     1.11900
O642        O  0.76401664  0.55642742  0.05186170    -0.77700
O643        O  0.73638331  0.55637947  0.94822325    -0.77700
O644        O  0.84358510  0.61874943  0.95726546    -0.77700
O645        O  0.65668359  0.61861633  0.04275292    -0.77600
O646        O  0.68072701  0.56598318  0.00937627    -0.77700
O647        O  0.81962593  0.56609264  0.99067232    -0.77700
O648        O  0.72477462  0.60044240  0.08798258    -0.77600
O649        O  0.77553659  0.60044178  0.91206586    -0.77700
Co650      Co  0.79943336  0.60165767  0.03664348     1.51500
Co651      Co  0.70088300  0.60155509  0.96339486     1.51700
Co652      Co  0.78673840  0.64831705  0.95073325     1.51600
Co653      Co  0.71348797  0.64827480  0.04928884     1.51500
O654        O  0.75013502  0.62495255  0.00001769    -1.39600
C655        C  0.74002224  0.56439040  0.08142484     1.12000
C656        C  0.76035569  0.56436667  0.91865014     1.12100
C657        C  0.84921695  0.58215695  0.97098430     1.12000
C658        C  0.65109263  0.58202156  0.02902074     1.12000
C659        C  0.52323950  0.48731667  0.03623028     0.04800
C660        C  0.53649533  0.52292910  0.01246955     0.04800
C661        C  0.51272753  0.53618895  0.97685760     0.04800
C662        C  0.47711711  0.51241831  0.96359765     0.04800
C663        C  0.46385913  0.47681017  0.98736552     0.04800
C664        C  0.48762409  0.46354882  0.02297814     0.04800
O665        O  0.80196180  0.19349188  0.01383741    -0.77700
O666        O  0.69830745  0.19349132  0.98620168    -0.77700
O667        O  0.79286914  0.13119751  0.90657817    -0.77700
O668        O  0.70737821  0.13122391  0.09347081    -0.77600
O669        O  0.75947744  0.18384599  0.93057299    -0.77800
O670        O  0.74077830  0.18386861  0.06947457    -0.77700
O671        O  0.66217103  0.14945358  0.02540238    -0.77700
O672        O  0.83809011  0.14944018  0.97464282    -0.77700
C673        C  0.83152818  0.18550752  0.98985234     1.12000
C674        C  0.66874677  0.18551840  0.01019394     1.11900
C675        C  0.77914292  0.16779055  0.90096091     1.12100
C676        C  0.72110288  0.16781846  0.09908388     1.11900
O677        O  0.77549938  0.10044521  0.08798604    -0.77700
O678        O  0.72474053  0.10042654  0.91207166    -0.77700
O679        O  0.81957534  0.06602849  0.00938628    -0.77700
O680        O  0.68067123  0.06602706  0.99068020    -0.77600
O681        O  0.65666763  0.11866859  0.95728573    -0.77700
O682        O  0.84357231  0.11867788  0.04277586    -0.77700
O683        O  0.73630695  0.05640334  0.05184522    -0.77600
O684        O  0.76393817  0.05638800  0.94821200    -0.77700
Co685      Co  0.78675146  0.14829401  0.04930118     1.51500
Co686      Co  0.71349798  0.14828283  0.95074835     1.51700
Co687      Co  0.79940184  0.10159046  0.96340461     1.51600
Co688      Co  0.70084928  0.10160305  0.03664925     1.51500
O689        O  0.75012619  0.12494456  0.00002526    -1.39600
C690        C  0.76028502  0.06438133  0.08141626     1.12000
C691        C  0.73995039  0.06436156  0.91864647     1.12100
C692        C  0.84918665  0.08208534  0.02905154     1.12000
C693        C  0.65105479  0.08207499  0.97101549     1.12000
O694        O  0.35051808  0.52531558  0.66200819    -0.77700
O695        O  0.35069679  0.47450529  0.83788984    -0.77700
O696        O  0.31625219  0.43044742  0.75933111    -0.77700
O697        O  0.31618608  0.56937708  0.74064578    -0.77600
O698        O  0.36894332  0.40645195  0.79264979    -0.77800
O699        O  0.36879585  0.59339625  0.70721348    -0.77700
O700        O  0.30662107  0.51370591  0.80179478    -0.77700
O701        O  0.30653367  0.48609419  0.69818975    -0.77700
C702        C  0.31446650  0.51008554  0.66861634     1.12000
C703        C  0.31462538  0.48971502  0.83134853     1.11900
C704        C  0.33233522  0.40083136  0.77896586     1.12100
C705        C  0.33221552  0.59899966  0.72097586     1.11900
O706        O  0.44364988  0.55179152  0.73605238    -0.77700
O707        O  0.44371556  0.44814594  0.76367963    -0.77700
O708        O  0.38131568  0.45720015  0.65647725    -0.77700
O709        O  0.38144383  0.54264417  0.84339280    -0.77600
O710        O  0.43409020  0.50928042  0.81935730    -0.77700
O711        O  0.43397840  0.49061523  0.68041631    -0.77700
O712        O  0.39962988  0.58788394  0.77531868    -0.77600
O713        O  0.39965850  0.41199830  0.72450936    -0.77700
Co714      Co  0.39841305  0.53657686  0.70063850     1.51500
Co715      Co  0.39853053  0.46329737  0.79917786     1.51700
Co716      Co  0.35176811  0.45065323  0.71332789     1.51600
Co717      Co  0.35179703  0.54918793  0.78658531     1.51500
O718        O  0.37513255  0.49993180  0.74993245    -1.39600
C719        C  0.43568499  0.58133153  0.76007682     1.12000
C720        C  0.43573652  0.41859146  0.73968014     1.12100
C721        C  0.41790492  0.47092021  0.65083379     1.12000
C722        C  0.41804140  0.52892313  0.84898810     1.12000
O723        O  0.77541849  0.89942439  0.41207174    -0.77700
O724        O  0.72462824  0.89942070  0.58796899    -0.77700
O725        O  0.68054918  0.93380970  0.50936331    -0.77700
O726        O  0.81947391  0.93383320  0.49067681    -0.77600
O727        O  0.65656719  0.88115537  0.54275729    -0.77800
O728        O  0.84348628  0.88118773  0.45729567    -0.77700
O729        O  0.76382140  0.94346242  0.55182766    -0.77700
O730        O  0.73619855  0.94345806  0.44819602    -0.77700
C731        C  0.76020285  0.93548707  0.41864122     1.12000
C732        C  0.73983486  0.93548691  0.58139252     1.11900
C733        C  0.65094465  0.91774712  0.52903460     1.12100
C734        C  0.84909437  0.91778320  0.47102081     1.11900
O735        O  0.80184871  0.80636770  0.48621265    -0.77700
O736        O  0.69820962  0.80635125  0.51383582    -0.77700
O737        O  0.70729355  0.86864287  0.40656416    -0.77700
O738        O  0.79275354  0.86865594  0.59347704    -0.77600
O739        O  0.75937577  0.81599942  0.56947958    -0.77700
O740        O  0.74069029  0.81599972  0.43056369    -0.77700
O741        O  0.83797189  0.85041396  0.52541746    -0.77600
O742        O  0.66207050  0.85038352  0.47462857    -0.77700
Co743      Co  0.78665965  0.85157050  0.45075131     1.51500
Co744      Co  0.71339699  0.85155901  0.54929345     1.51700
Co745      Co  0.70074426  0.89824715  0.46338927     1.51600
Co746      Co  0.79928833  0.89826412  0.53664877     1.51500
O747        O  0.75002131  0.87491003  0.50001945    -1.39600
C748        C  0.83140469  0.81434756  0.51020894     1.12000
C749        C  0.66864474  0.81432069  0.48984484     1.12100
C750        C  0.72102779  0.83205286  0.40094732     1.12000
C751        C  0.77903937  0.83205768  0.59909291     1.12000
O752        O  0.05646159  0.55172372  0.26370059    -0.77700
O753        O  0.05650189  0.44808476  0.23608584    -0.77700
O754        O  0.11881493  0.54266193  0.15648457    -0.77700
O755        O  0.11871244  0.45720804  0.34340449    -0.77600
O756        O  0.06615860  0.50925457  0.18044608    -0.77800
O757        O  0.06607258  0.49058356  0.31937098    -0.77700
O758        O  0.10052711  0.41197396  0.27532693    -0.77700
O759        O  0.10051800  0.58787226  0.22453185    -0.77700
C760        C  0.06444465  0.58129065  0.23971972     1.12000
C761        C  0.06447001  0.41853185  0.26009181     1.11900
C762        C  0.08222529  0.52893631  0.15085043     1.12100
C763        C  0.08211653  0.47093606  0.34900133     1.11900
O764        O  0.14947313  0.52533807  0.33790501    -0.84900
O765        O  0.14960057  0.47454060  0.16199841    -0.77700
O766        O  0.18392705  0.56939536  0.25931862    -0.77700
O767        O  0.18396396  0.43048676  0.24064455    -0.77600
O768        O  0.13134663  0.40647198  0.20721786    -0.77700
O769        O  0.13125125  0.59339029  0.29266767    -0.77700
O770        O  0.19354492  0.48614134  0.30180488    -0.77600
O771        O  0.19361184  0.51375122  0.19815715    -0.77700
Co772      Co  0.10164425  0.53655798  0.29919342     1.51500
Co773      Co  0.10172543  0.46328928  0.20065357     1.51700
Co774      Co  0.14839024  0.54920244  0.21332450     1.51600
Co775      Co  0.14836145  0.45066704  0.28659334     1.51500
O776        O  0.12502969  0.49992715  0.24994079    -1.39600
C777        C  0.18554315  0.51012902  0.33136228     1.12000
C778        C  0.18565808  0.48976458  0.16858485     1.12100
C779        C  0.16785625  0.59900590  0.27897223     1.12000
C780        C  0.16793075  0.40086925  0.22097050     1.12000
C781        C  0.47693093  0.48723487  0.53619865     0.04800
C782        C  0.46366487  0.52284341  0.51243884     0.04800
C783        C  0.48742869  0.53610870  0.47682543     0.04800
C784        C  0.52303938  0.51234233  0.46356266     0.04800
C785        C  0.53629351  0.47672492  0.48731780     0.04800
C786        C  0.51253730  0.46346117  0.52293570     0.04800
C787        C  0.02318909  0.51255475  0.03622319     0.04800
C788        C  0.03644873  0.47694788  0.01245511     0.04800
C789        C  0.01268060  0.46368684  0.97684461     0.04800
C790        C  0.97706541  0.48745405  0.96358863     0.04800
C791        C  0.96381656  0.52306900  0.98735269     0.04800
C792        C  0.98757913  0.53632896  0.02296732     0.04800
C793        C  0.04496505  0.52327199  0.07571120    -0.10800
C794        C  0.06210362  0.52876337  0.10953707    -0.12300
C795        C  0.43802774  0.47105759  0.60952115    -0.10800
C796        C  0.45516501  0.47652388  0.57569406    -0.12300
C797        C  0.45532814  0.52315646  0.92411559    -0.10800
C798        C  0.43818261  0.52868883  0.89029771    -0.12300
C799        C  0.89052479  0.56202156  0.97114034    -0.10800
C800        C  0.92433889  0.54486336  0.97662786    -0.12300
C801        C  0.57597059  0.54472808  0.02321644    -0.10800
C802        C  0.60978383  0.56187822  0.02876694    -0.12300
C803        C  0.06197069  0.47117207  0.39031107    -0.10800
C804        C  0.04481615  0.47670688  0.42412525    -0.12300
C805        C  0.57577049  0.45493349  0.47659192    -0.10800
C806        C  0.60958551  0.43777133  0.47111856    -0.12300
C807        C  0.89033708  0.43798323  0.52875813    -0.10800
C808        C  0.92415280  0.45513206  0.52320883    -0.12300
C809        C  0.77334393  0.79476120  0.67421781    -0.10800
C810        C  0.77884898  0.81191892  0.64039743    -0.12300
C811        C  0.72128061  0.68788989  0.85962533    -0.10800
C812        C  0.72679315  0.70504348  0.82580400    -0.12300
C813        C  0.72129069  0.18795964  0.14038921    -0.10800
C814        C  0.72679271  0.20511267  0.17420922    -0.12300
C815        C  0.77885088  0.31198137  0.35961612    -0.10800
C816        C  0.77333527  0.29483085  0.32579692    -0.12300
C817        C  0.73219785  0.46616676  0.38938910    -0.10800
C818        C  0.71620404  0.48220961  0.36070300    -0.12300
C819        C  0.73252972  0.53370441  0.11072148    -0.10800
C820        C  0.71648631  0.51767470  0.13938912    -0.12300
C821        C  0.56218672  0.47110771  0.10952560    -0.10800
C822        C  0.54502954  0.47659137  0.07570896    -0.12300
C823        C  0.54483700  0.52310430  0.42409112    -0.10800
C824        C  0.56198551  0.52867114  0.39028190    -0.12300
C825        C  0.68802382  0.35957133  0.27878941    -0.10800
C826        C  0.70518601  0.32576045  0.27328275    -0.12300
C827        C  0.72677954  0.79478884  0.32581239    -0.10800
C828        C  0.72124982  0.81192833  0.35963688    -0.12300
C829        C  0.77337725  0.70513934  0.17420324    -0.10800
C830        C  0.77890302  0.68799449  0.14037975    -0.12300
C831        C  0.68812561  0.64033643  0.22119337    -0.10800
C832        C  0.70525991  0.67415745  0.22671290    -0.12300
C833        C  0.21630077  0.01760080  0.63934508    -0.10800
C834        C  0.23229272  0.03363044  0.61065107    -0.12300
C835        C  0.51778919  0.36063289  0.21616344    -0.10800
C836        C  0.53381595  0.38932663  0.23215749    -0.12300
C837        C  0.61077221  0.23220351  0.03374403    -0.10800
C838        C  0.63946295  0.21620508  0.01771483    -0.12300
C839        C  0.47687895  0.42407821  0.04477470    -0.10800
C840        C  0.47133447  0.39026155  0.06192920    -0.12300
C841        C  0.64045197  0.27874817  0.18797681    -0.10800
C842        C  0.67426907  0.27324175  0.20513989    -0.12300
C843        C  0.60974685  0.06193032  0.97122589    -0.10800
C844        C  0.57593552  0.04476423  0.97675058    -0.12300
C845        C  0.52342036  0.07569081  0.04489219    -0.10800
C846        C  0.52892003  0.10951499  0.06204014    -0.12300
C847        C  0.73243162  0.03367099  0.88936157    -0.10800
C848        C  0.71640330  0.01763422  0.86068981    -0.12300
C849        C  0.71632177  0.98221259  0.63936008    -0.10800
C850        C  0.73232829  0.96617596  0.61067782    -0.12300
C851        C  0.70522861  0.82571246  0.72674666    -0.10800
C852        C  0.68808782  0.85953101  0.72123513    -0.12300
C853        C  0.54500284  0.97660387  0.92425813    -0.10800
C854        C  0.56215208  0.97108669  0.89044308    -0.12300
C855        C  0.51779827  0.63931587  0.28362090    -0.10800
C856        C  0.53382599  0.61065458  0.26756419    -0.12300
C857        C  0.61069611  0.76756919  0.46631149    -0.10800
C858        C  0.63936114  0.78362569  0.48233324    -0.12300
C859        C  0.47123089  0.60942233  0.43790531    -0.10800
C860        C  0.47671115  0.57559327  0.45505295    -0.12300
C861        C  0.64046087  0.72113502  0.31199574    -0.10800
C862        C  0.67427957  0.72665774  0.29484677    -0.12300
C863        C  0.60963068  0.93787364  0.52884610    -0.10800
C864        C  0.57580645  0.95501024  0.52334698    -0.12300
C865        C  0.42419865  0.04471790  0.47680623    -0.10800
C866        C  0.39038861  0.06187706  0.47126609    -0.12300
C867        C  0.56204425  0.02867484  0.60968569    -0.10800
C868        C  0.54487617  0.02314050  0.57587837    -0.12300
C869        C  0.52326968  0.92405016  0.45523686    -0.10800
C870        C  0.52879697  0.89022732  0.43808590    -0.12300
C871        C  0.46629245  0.88926381  0.26784423    -0.10800
C872        C  0.48230771  0.86057243  0.28385656    -0.12300
C873        C  0.48243087  0.13923688  0.21629129    -0.10800
C874        C  0.46642084  0.11055543  0.23233373    -0.12300
C875        C  0.28374514  0.01770308  0.36063400    -0.10800
C876        C  0.26769714  0.03370608  0.38931190    -0.12300
C877        C  0.43814904  0.02868146  0.10967301    -0.10800
C878        C  0.45530219  0.02316720  0.07585564    -0.12300
C879        C  0.43799088  0.97110753  0.39046870    -0.10800
C880        C  0.45514202  0.97658958  0.42428978    -0.12300
C881        C  0.61079842  0.26740541  0.53371702    -0.10800
C882        C  0.63946151  0.28345573  0.51768611    -0.12300
C883        C  0.51779886  0.13925797  0.71638938    -0.10800
C884        C  0.53382114  0.11057834  0.73241678    -0.12300
C885        C  0.36072223  0.21610515  0.51777710    -0.10800
C886        C  0.38942128  0.23209490  0.53379821    -0.12300
C887        C  0.48246457  0.36064609  0.71611059    -0.10800
C888        C  0.46643780  0.38933222  0.73212154    -0.12300
C889        C  0.52328900  0.42398822  0.54472644    -0.10800
C890        C  0.52885021  0.39016960  0.56187612    -0.12300
C891        C  0.47671718  0.07562558  0.54496093    -0.10800
C892        C  0.47122564  0.10944346  0.56212353    -0.12300
C893        C  0.27887548  0.18787071  0.64040213    -0.10800
C894        C  0.27339068  0.20503823  0.67422092    -0.12300
C895        C  0.18810507  0.14030249  0.72124438    -0.10800
C896        C  0.20526270  0.17411799  0.72675396    -0.12300
C897        C  0.29503133  0.32570654  0.77326982    -0.10800
C898        C  0.31219921  0.35951660  0.77877474    -0.12300
C899        C  0.35975142  0.27869289  0.68797817    -0.10800
C900        C  0.32593512  0.27317444  0.70513263    -0.12300
C901        C  0.26794356  0.46620020  0.88935158    -0.10800
C902        C  0.28396709  0.48220651  0.86066302    -0.12300
C903        C  0.21635948  0.48227323  0.13930225    -0.10800
C904        C  0.23240967  0.46626383  0.11062540    -0.12300
C905        C  0.38940053  0.26756962  0.03373851    -0.10800
C906        C  0.36072415  0.28361690  0.01773096    -0.12300
C907        C  0.10974757  0.43800555  0.02871624    -0.10800
C908        C  0.07593173  0.45515508  0.02318935    -0.12300
C909        C  0.42437259  0.45502578  0.97664795    -0.10800
C910        C  0.39055145  0.43787596  0.97116434    -0.12300
C911        C  0.22687262  0.29480466  0.82578801    -0.10800
C912        C  0.22135597  0.31196920  0.85960386    -0.12300
C913        C  0.18807839  0.35956297  0.22119224    -0.10800
C914        C  0.20523371  0.32575306  0.22672045    -0.12300
C915        C  0.22681575  0.20512412  0.32582162    -0.10800
C916        C  0.22128480  0.18797610  0.35964318    -0.12300
C917        C  0.35971363  0.22115049  0.18801779    -0.10800
C918        C  0.32589577  0.22668042  0.20516932    -0.12300
C919        C  0.31211967  0.14036394  0.27881687    -0.10800
C920        C  0.29496249  0.17417652  0.27331153    -0.12300
C921        C  0.27888661  0.31196932  0.14039896    -0.10800
C922        C  0.27337707  0.29481357  0.17422001    -0.12300
C923        C  0.88942810  0.26774883  0.46624750    -0.10800
C924        C  0.86074783  0.28376001  0.48228132    -0.12300
C925        C  0.13938009  0.21625179  0.48233922    -0.10800
C926        C  0.11070422  0.23228859  0.46631372    -0.12300
C927        C  0.03378686  0.38924063  0.26760759    -0.10800
C928        C  0.01778198  0.36056150  0.28365507    -0.12300
C929        C  0.97668600  0.42419588  0.45506842    -0.10800
C930        C  0.97120591  0.39037243  0.43791279    -0.12300
C931        C  0.85967359  0.22117152  0.31202133    -0.10800
C932        C  0.82585226  0.22669053  0.29486910    -0.12300
C933        C  0.14047576  0.27874804  0.31202028    -0.10800
C934        C  0.17429676  0.27324253  0.29486733    -0.12300
C935        C  0.76760737  0.46614549  0.61070327    -0.10800
C936        C  0.78366107  0.48217686  0.63936497    -0.12300
C937        C  0.76786747  0.53368045  0.88936253    -0.10800
C938        C  0.78385676  0.51763653  0.86067485    -0.12300
C939        C  0.93794557  0.52874231  0.60954053    -0.10800
C940        C  0.95509845  0.52325461  0.57572221    -0.12300
C941        C  0.93810153  0.47115586  0.89030809    -0.10800
C942        C  0.95526171  0.47670294  0.92411826    -0.12300
C943        C  0.81207232  0.64028378  0.77878586    -0.10800
C944        C  0.79492307  0.67409988  0.77327991    -0.12300
C945        C  0.70525305  0.17409086  0.77334820    -0.10800
C946        C  0.68810055  0.14027812  0.77886425    -0.12300
C947        C  0.77340030  0.20506165  0.82583095    -0.10800
C948        C  0.77893008  0.18791785  0.85965184    -0.12300
C949        C  0.67429446  0.22656658  0.70519741    -0.10800
C950        C  0.64047761  0.22104760  0.68804485    -0.12300
C951        C  0.72678034  0.29469674  0.67421828    -0.10800
C952        C  0.72125204  0.31183466  0.64039304    -0.12300
C953        C  0.81202308  0.35951538  0.72119695    -0.10800
C954        C  0.79489531  0.32569275  0.72672275    -0.12300
C955        C  0.51781488  0.86056347  0.78377501    -0.10800
C956        C  0.53385827  0.88923862  0.76776292    -0.12300
C957        C  0.61071531  0.73212935  0.96626877    -0.10800
C958        C  0.63939393  0.71611016  0.98229962    -0.12300
C959        C  0.48237545  0.63928660  0.78367800    -0.10800
C960        C  0.46637290  0.61061469  0.76761518    -0.12300
C961        C  0.52892925  0.60950028  0.93793411    -0.10800
C962        C  0.52344315  0.57567264  0.95508068    -0.12300
C963        C  0.64046558  0.77870677  0.81203069    -0.10800
C964        C  0.67428292  0.77318844  0.79487664    -0.12300
C965        C  0.47132537  0.89028028  0.93803860    -0.10800
C966        C  0.47685716  0.92409818  0.95519399    -0.12300
C967        C  0.20519872  0.82571084  0.77332543    -0.10800
C968        C  0.18804408  0.85952535  0.77883360    -0.12300
C969        C  0.29491727  0.67412113  0.72674461    -0.10800
C970        C  0.31206985  0.64030886  0.72121114    -0.12300
C971        C  0.35968297  0.72112602  0.81202703    -0.10800
C972        C  0.32585993  0.72663978  0.79488010    -0.12300
C973        C  0.23220049  0.53364005  0.38938146    -0.10800
C974        C  0.21619903  0.51763276  0.36068004    -0.12300
C975        C  0.26767784  0.53357879  0.61068895    -0.10800
C976        C  0.28374356  0.51757234  0.63935739    -0.12300
C977        C  0.36076293  0.71601370  0.48232762    -0.10800
C978        C  0.38945196  0.73202520  0.46630681    -0.12300
C979        C  0.42418600  0.54463527  0.52318680    -0.10800
C980        C  0.39036996  0.56178043  0.52873697    -0.12300
C981        C  0.10957957  0.56198626  0.47119320    -0.10800
C982        C  0.07575679  0.54483497  0.47666914    -0.12300
C983        C  0.22126132  0.68790220  0.64042985    -0.10800
C984        C  0.22677183  0.70506062  0.67424646    -0.12300
C985        C  0.32583321  0.77317431  0.29493774    -0.10800
C986        C  0.35965140  0.77867477  0.31209514    -0.12300
C987        C  0.29491843  0.82572894  0.22680957    -0.10800
C988        C  0.31207271  0.85954580  0.22129117    -0.12300
C989        C  0.20516059  0.67412993  0.27330170    -0.10800
C990        C  0.18799802  0.64031604  0.27879457    -0.12300
C991        C  0.27330234  0.70502879  0.32584079    -0.10800
C992        C  0.27881356  0.68785563  0.35965312    -0.12300
C993        C  0.86073370  0.71631227  0.01766930    -0.10800
C994        C  0.88940961  0.73234399  0.03369593    -0.12300
C995        C  0.03375727  0.61057535  0.23220494    -0.10800
C996        C  0.01772722  0.63926409  0.21620299    -0.12300
C997        C  0.97684028  0.57580278  0.04476560    -0.10800
C998        C  0.97130717  0.60961966  0.06192647    -0.12300
C999        C  0.85968050  0.77878903  0.18799544    -0.10800
C1000       C  0.82586776  0.77327592  0.20515670    -0.12300
C1001       C  0.17424506  0.72667892  0.20518263    -0.10800
C1002       C  0.14042647  0.72116706  0.18802775    -0.12300
C1003       C  0.13947378  0.78369049  0.01779080    -0.10800
C1004       C  0.11078056  0.76768588  0.03380852    -0.12300
C1005       C  0.36076939  0.78364762  0.98232803    -0.10800
C1006       C  0.38944107  0.76760451  0.96630395    -0.12300
C1007       C  0.26785433  0.96622045  0.11067868    -0.10800
C1008       C  0.28386607  0.98224793  0.13936277    -0.12300
C1009       C  0.23238304  0.96619873  0.88938066    -0.10800
C1010       C  0.21634393  0.98220605  0.86069847    -0.12300
C1011       C  0.27887469  0.81193213  0.85964822    -0.10800
C1012       C  0.27335021  0.79477545  0.82583183    -0.12300
C1013       C  0.22131031  0.81196316  0.14044113    -0.10800
C1014       C  0.22679999  0.79480314  0.17426230    -0.12300
C1015       C  0.39052488  0.93790612  0.02882822    -0.10800
C1016       C  0.42434696  0.95504901  0.02332414    -0.12300
C1017       C  0.03377016  0.88927093  0.73235372    -0.10800
C1018       C  0.01775081  0.86058677  0.71632771    -0.12300
C1019       C  0.98232133  0.63923184  0.71619711    -0.10800
C1020       C  0.96628728  0.61054378  0.73219406    -0.12300
C1021       C  0.13943633  0.71625240  0.51776187    -0.10800
C1022       C  0.11075519  0.73229170  0.53376937    -0.12300
C1023       C  0.88938667  0.76767010  0.53375951    -0.10800
C1024       C  0.86069473  0.78366733  0.51773189    -0.12300
C1025       C  0.14043341  0.77870897  0.68804590    -0.10800
C1026       C  0.17425420  0.77319124  0.70519716    -0.12300
C1027       C  0.02879425  0.60958555  0.56195683    -0.10800
C1028       C  0.02324903  0.57577185  0.54479741    -0.12300
C1029       C  0.82586095  0.72662547  0.70514722    -0.10800
C1030       C  0.85967816  0.72111974  0.68798841    -0.12300
C1031       C  0.92421430  0.95509102  0.47675918    -0.10800
C1032       C  0.89040272  0.93792782  0.47123486    -0.12300
C1033       C  0.07579547  0.04481896  0.52332379    -0.10800
C1034       C  0.10961397  0.06196928  0.52882092    -0.12300
C1035       C  0.04486452  0.97668220  0.57584788    -0.10800
C1036       C  0.06202386  0.97116171  0.60966117    -0.12300
C1037       C  0.02880834  0.10958662  0.43804546    -0.10800
C1038       C  0.02327901  0.07576662  0.45519933    -0.12300
C1039       C  0.97673459  0.92416536  0.54490251    -0.10800
C1040       C  0.97123720  0.89034411  0.56205821    -0.12300
C1041       C  0.98233465  0.13930155  0.28377153    -0.10800
C1042       C  0.96629151  0.11062898  0.26775378    -0.12300
C1043       C  0.78378703  0.01766480  0.13939326    -0.10800
C1044       C  0.76777632  0.03369898  0.11071179    -0.12300
C1045       C  0.76773608  0.96617955  0.38936226    -0.10800
C1046       C  0.78377308  0.98221063  0.36069121    -0.12300
C1047       C  0.96634538  0.88931613  0.23233188    -0.10800
C1048       C  0.98235807  0.86063304  0.21630060    -0.12300
C1049       C  0.81207845  0.85956857  0.27883716    -0.10800
C1050       C  0.79492439  0.82575566  0.27331854    -0.12300
C1051       C  0.81204528  0.14033808  0.22124164    -0.10800
C1052       C  0.79490272  0.17415762  0.22674860    -0.12300
C1053       C  0.93800817  0.02875851  0.39043505    -0.10800
C1054       C  0.95515078  0.02324316  0.42425486    -0.12300
C1055       C  0.11076679  0.26772658  0.96623326    -0.10800
C1056       C  0.13944958  0.28374414  0.98225861    -0.12300
C1057       C  0.01783396  0.13931645  0.78374442    -0.10800
C1058       C  0.03385859  0.11062919  0.76773707    -0.12300
C1059       C  0.96630083  0.38923338  0.76761741    -0.10800
C1060       C  0.98233839  0.36057235  0.78366419    -0.12300
C1061       C  0.88949564  0.23222669  0.96630346    -0.10800
C1062       C  0.86082507  0.21618767  0.98233531    -0.12300
C1063       C  0.14050586  0.22117823  0.81200678    -0.10800
C1064       C  0.17432923  0.22668036  0.79486188    -0.12300
C1065       C  0.02340466  0.42420694  0.95506214    -0.10800
C1066       C  0.02890898  0.39038219  0.93791580    -0.12300
C1067       C  0.85969910  0.27872974  0.81201691    -0.10800
C1068       C  0.82588045  0.27320665  0.79486635    -0.12300
C1069       C  0.92432007  0.04482142  0.02332314    -0.10800
C1070       C  0.89049868  0.06195883  0.02884172    -0.12300
C1071       C  0.04497080  0.02323935  0.92425010    -0.10800
C1072       C  0.06211425  0.02874289  0.89043009    -0.12300
C1073       C  0.02339647  0.92418926  0.04491535    -0.10800
C1074       C  0.02890413  0.89036807  0.06206942    -0.12300
C1075       C  0.07591902  0.95511121  0.97678009    -0.10800
C1076       C  0.10973353  0.93795071  0.97126693    -0.12300
C1077       C  0.95524767  0.97669312  0.07584774    -0.10800
C1078       C  0.93808082  0.97117791  0.10965728    -0.12300
C1079       C  0.97684610  0.07576938  0.95518956    -0.10800
C1080       C  0.97133680  0.10958879  0.93802520    -0.12300
loop_ 
_geom_bond_atom_site_label_1 
_geom_bond_atom_site_label_2 
_geom_bond_distance 
_geom_bond_site_symmetry_2 
_ccdc_geom_bond_type 
C1            C2   1.439   1_565  A
C1            C6   1.439   1_556  A
C1         C1075   1.488       .  S
C2            C3   1.439   1_455  A
C2         C1071   1.488       .  S
C3            C4   1.439   1_556  A
C3         C1079   1.488       .  S
C4            C5   1.439   1_545  A
C4         C1069   1.488       .  S
C5            C6   1.439   1_655  A
C5         C1077   1.488       .  S
C6         C1073   1.488       .  S
O7           C15   1.274       .  A
O7          Co27   2.008       .  S
O8           C16   1.274       .  A
O8          Co28   2.008       .  S
O9           C17   1.252       .  A
O9          Co29   1.975       .  S
O10          C18   1.252       .  A
O10         Co30   1.975       .  S
O11          C17   1.267       .  A
O11         Co28   2.067       .  S
O12          C18   1.267       .  A
O12         Co27   2.067       .  S
O13          C16   1.249   1_455  A
O13         Co30   1.907       .  S
O14          C15   1.249   1_655  A
O14         Co29   1.907       .  S
C15        C1057   1.383       .  S
C16        C1060   1.383       .  S
C17        C1067   1.475       .  S
C18        C1063   1.475       .  S
O19          C32   1.249       .  A
O19         Co27   1.907       .  S
O20          C33   1.249       .  A
O20         Co28   1.908       .  S
O21          C34   1.267       .  A
O21         Co29   2.068       .  S
O22          C35   1.267       .  A
O22         Co30   2.067       .  S
O23          C35   1.252       .  A
O23         Co28   1.975   1_455  S
O24          C34   1.252       .  A
O24         Co27   1.975   1_655  S
O25          C32   1.274       .  A
O25         Co30   2.008       .  S
O26          C33   1.274       .  A
O26         Co29   2.008       .  S
Co27         O31   2.108       .  S
Co28         O31   2.108   1_655  S
Co29         O31   2.108   1_655  S
Co30         O31   2.108       .  S
C32        C1055   1.383       .  S
C33        C1061   1.383       .  S
C34        C1080   1.475       .  S
C35        C1066   1.475       .  S
O36          C44   1.274       .  A
O36         Co56   2.008       .  S
O37          C45   1.274       .  A
O37         Co57   2.008       .  S
O38          C46   1.252       .  A
O38         Co58   1.975       .  S
O39          C47   1.252       .  A
O39         Co59   1.975       .  S
O40          C46   1.267       .  A
O40         Co57   2.067       .  S
O41          C47   1.267       .  A
O41         Co56   2.067       .  S
O42          C45   1.249   1_545  A
O42         Co59   1.908       .  S
O43          C44   1.249   1_565  A
O43         Co58   1.907       .  S
C44        C1043   1.383       .  S
C45        C1046   1.383       .  S
C46        C1049   1.475       .  S
C47        C1051   1.475       .  S
O48          C61   1.249       .  A
O48         Co56   1.907       .  S
O49          C62   1.249       .  A
O49         Co57   1.908       .  S
O50          C63   1.267       .  A
O50         Co58   2.068       .  S
O51          C64   1.267       .  A
O51         Co59   2.067       .  S
O52          C64   1.252       .  A
O52         Co57   1.975   1_545  S
O53          C63   1.252       .  A
O53         Co56   1.975   1_565  S
O54          C61   1.274       .  A
O54         Co59   2.008       .  S
O55          C62   1.274       .  A
O55         Co58   2.008       .  S
Co56         O60   2.108   1_545  S
Co57         O60   2.108       .  S
Co58         O60   2.108       .  S
Co59         O60   2.108   1_545  S
C61        C1042   1.383       .  S
C62        C1047   1.383       .  S
C63        C1078   1.475       .  S
C64        C1053   1.475       .  S
C65          C66   1.439   1_565  A
C65          C70   1.439       .  A
C65        C1031   1.488       .  S
C66          C67   1.439   1_655  A
C66        C1054   1.488       .  S
C67          C68   1.439       .  A
C67        C1038   1.488       .  S
C68          C69   1.439   1_545  A
C68        C1033   1.488       .  S
C69          C70   1.439   1_455  A
C69        C1035   1.488       .  S
C70        C1039   1.488       .  S
O71          C79   1.274       .  A
O71         Co91   2.008       .  S
O72          C80   1.274       .  A
O72         Co92   2.008       .  S
O73          C81   1.252       .  A
O73         Co93   1.975       .  S
O74          C82   1.252       .  A
O74         Co94   1.975       .  S
O75          C81   1.267       .  A
O75         Co92   2.067       .  S
O76          C82   1.267       .  A
O76         Co91   2.067       .  S
O77          C80   1.249   1_455  A
O77         Co94   1.907       .  S
O78          C79   1.249   1_655  A
O78         Co93   1.908       .  S
C79        C1018   1.383       .  S
C80        C1019   1.383       .  S
C81        C1030   1.475       .  S
C82        C1025   1.475       .  S
O83          C96   1.249       .  A
O83         Co91   1.908       .  S
O84          C97   1.249       .  A
O84         Co92   1.907       .  S
O85          C98   1.267       .  A
O85         Co93   2.067       .  S
O86          C99   1.267       .  A
O86         Co94   2.068       .  S
O87          C99   1.252       .  A
O87         Co92   1.975   1_455  S
O88          C98   1.252       .  A
O88         Co91   1.975   1_655  S
O89          C96   1.274       .  A
O89         Co94   2.008       .  S
O90          C97   1.274       .  A
O90         Co93   2.008       .  S
Co91         O95   2.108       .  S
Co92         O95   2.108   1_655  S
Co93         O95   2.108   1_655  S
Co94         O95   2.108       .  S
C96        C1022   1.383       .  S
C97        C1023   1.383       .  S
C98        C1040   1.475       .  S
C99        C1027   1.475       .  S
O100        C108   1.274       .  A
O100       Co120   2.008       .  S
O101        C109   1.274       .  A
O101       Co121   2.008       .  S
O102        C110   1.252       .  A
O102       Co122   1.975       .  S
O103        C111   1.252       .  A
O103       Co123   1.975       .  S
O104        C110   1.267       .  A
O104       Co121   2.067       .  S
O105        C111   1.267       .  A
O105       Co120   2.068       .  S
O106        C109   1.249   1_554  A
O106       Co123   1.908       .  S
O107        C108   1.249   1_556  A
O107       Co122   1.907       .  S
C108       C1003   1.383       .  S
C109       C1005   1.383       .  S
C110       C1011   1.475       .  S
C111       C1013   1.475       .  S
O112        C125   1.249       .  A
O112       Co120   1.907       .  S
O113        C126   1.249       .  A
O113       Co121   1.908       .  S
O114        C127   1.267       .  A
O114       Co122   2.068       .  S
O115        C128   1.267       .  A
O115       Co123   2.067       .  S
O116        C128   1.252       .  A
O116       Co121   1.975   1_554  S
O117        C127   1.252       .  A
O117       Co120   1.975   1_556  S
O118        C125   1.274       .  A
O118       Co123   2.008       .  S
O119        C126   1.274       .  A
O119       Co122   2.008       .  S
Co120       O124   2.108       .  S
Co121       O124   2.108   1_556  S
Co122       O124   2.108   1_556  S
Co123       O124   2.108       .  S
C125       C1007   1.383       .  S
C126       C1009   1.383       .  S
C127       C1076   1.475       .  S
C128       C1015   1.475       .  S
O129        C137   1.249   1_455  A
O129       Co149   1.908       .  S
O130        C138   1.249   1_655  A
O130       Co150   1.907       .  S
O131        C139   1.267       .  A
O131       Co151   2.067       .  S
O132        C140   1.267       .  A
O132       Co152   2.068       .  S
O133        C139   1.252       .  A
O133       Co150   1.975       .  S
O134        C140   1.252       .  A
O134       Co149   1.975       .  S
O135        C138   1.274       .  A
O135       Co152   2.008       .  S
O136        C137   1.274       .  A
O136       Co151   2.008       .  S
C137       C1048   1.383       .  S
C138        C996   1.383       .  S
C139        C999   1.475       .  S
C140       C1002   1.475       .  S
O141        C154   1.274       .  A
O141       Co149   2.008       .  S
O142        C155   1.274       .  A
O142       Co150   2.008       .  S
O143        C156   1.252       .  A
O143       Co151   1.975   1_455  S
O144        C157   1.252       .  A
O144       Co152   1.975   1_655  S
O145        C157   1.267       .  A
O145       Co150   2.068       .  S
O146        C156   1.267       .  A
O146       Co149   2.067       .  S
O147        C154   1.249       .  A
O147       Co152   1.907       .  S
O148        C155   1.249       .  A
O148       Co151   1.908       .  S
Co149       O153   2.108       .  S
Co150       O153   2.108   1_655  S
Co151       O153   2.108   1_655  S
Co152       O153   2.108       .  S
C154       C1004   1.383       .  S
C155        C994   1.383       .  S
C156       C1074   1.475       .  S
C157        C998   1.475       .  S
C158        C159   1.439       .  A
C158        C163   1.439       .  A
C158        C987   1.488       .  S
C159        C160   1.439       .  A
C159       C1014   1.488       .  S
C160        C161   1.439       .  A
C160       C1001   1.488       .  S
C161        C162   1.439       .  A
C161        C989   1.488       .  S
C162        C163   1.439       .  A
C162        C991   1.488       .  S
C163        C985   1.488       .  S
O164        C172   1.249       .  A
O164       Co184   1.907       .  S
O165        C173   1.249       .  A
O165       Co185   1.907       .  S
O166        C174   1.267       .  A
O166       Co186   2.067       .  S
O167        C175   1.267       .  A
O167       Co187   2.068       .  S
O168        C174   1.252       .  A
O168       Co185   1.975       .  S
O169        C175   1.252       .  A
O169       Co184   1.975       .  S
O170        C173   1.274       .  A
O170       Co187   2.008       .  S
O171        C172   1.274       .  A
O171       Co186   2.008       .  S
C172       C1021   1.383       .  S
C173        C977   1.383       .  S
C174        C983   1.475       .  S
C175        C992   1.475       .  S
O176        C189   1.274       .  A
O176       Co184   2.008       .  S
O177        C190   1.274       .  A
O177       Co185   2.008       .  S
O178        C191   1.252       .  A
O178       Co186   1.975       .  S
O179        C192   1.252       .  A
O179       Co187   1.975       .  S
O180        C192   1.267       .  A
O180       Co185   2.068       .  S
O181        C191   1.267       .  A
O181       Co184   2.067       .  S
O182        C189   1.249       .  A
O182       Co187   1.907       .  S
O183        C190   1.249       .  A
O183       Co186   1.908       .  S
Co184       O188   2.108       .  S
Co185       O188   2.108       .  S
Co186       O188   2.108       .  S
Co187       O188   2.108       .  S
C189        C973   1.383       .  S
C190        C975   1.383       .  S
C191        C981   1.475       .  S
C192        C980   1.475       .  S
C193        C194   1.439       .  A
C193        C198   1.439       .  A
C193        C967   1.488       .  S
C194        C195   1.439       .  A
C194       C1026   1.488       .  S
C195        C196   1.439       .  A
C195        C984   1.488       .  S
C196        C197   1.439       .  A
C196        C969   1.488       .  S
C197        C198   1.439       .  A
C197        C972   1.488       .  S
C198       C1012   1.488       .  S
O199        C207   1.274       .  A
O199       Co219   2.008       .  S
O200        C208   1.274       .  A
O200       Co220   2.008       .  S
O201        C209   1.252       .  A
O201       Co221   1.975       .  S
O202        C210   1.252       .  A
O202       Co222   1.975       .  S
O203        C209   1.267       .  A
O203       Co220   2.067       .  S
O204        C210   1.267       .  A
O204       Co219   2.068       .  S
O205        C208   1.249       .  A
O205       Co222   1.907       .  S
O206        C207   1.249       .  A
O206       Co221   1.908       .  S
C207       C1006   1.383       .  S
C208        C957   1.383       .  S
C209        C961   1.475       .  S
C210        C965   1.475       .  S
O211        C224   1.249       .  A
O211       Co219   1.907       .  S
O212        C225   1.249       .  A
O212       Co220   1.907       .  S
O213        C226   1.267       .  A
O213       Co221   2.067       .  S
O214        C227   1.267       .  A
O214       Co222   2.067       .  S
O215        C227   1.252       .  A
O215       Co220   1.975       .  S
O216        C226   1.252       .  A
O216       Co219   1.975       .  S
O217        C224   1.274       .  A
O217       Co222   2.008       .  S
O218        C225   1.274       .  A
O218       Co221   2.008       .  S
Co219       O223   2.108       .  S
Co220       O223   2.108       .  S
Co221       O223   2.108       .  S
Co222       O223   2.108       .  S
C224        C955   1.383       .  S
C225        C959   1.383       .  S
C226        C971   1.475       .  S
C227        C963   1.475       .  S
C228        C229   1.439       .  A
C228        C233   1.439       .  A
C228        C951   1.488       .  S
C229        C230   1.439       .  A
C229        C954   1.488       .  S
C230        C231   1.439       .  A
C230       C1068   1.488       .  S
C231        C232   1.439       .  A
C231        C947   1.488       .  S
C232        C233   1.439       .  A
C232        C945   1.488       .  S
C233        C949   1.488       .  S
O234        C242   1.274       .  A
O234       Co254   2.008       .  S
O235        C243   1.274       .  A
O235       Co255   2.008       .  S
O236        C244   1.252       .  A
O236       Co256   1.975       .  S
O237        C245   1.252       .  A
O237       Co257   1.975       .  S
O238        C244   1.267       .  A
O238       Co255   2.067       .  S
O239        C245   1.267       .  A
O239       Co254   2.068       .  S
O240        C243   1.249       .  A
O240       Co257   1.907       .  S
O241        C242   1.249       .  A
O241       Co256   1.908       .  S
C242       C1059   1.383       .  S
C243       C1020   1.383       .  S
C244        C939   1.475       .  S
C245        C941   1.475       .  S
O246        C259   1.249       .  A
O246       Co254   1.908       .  S
O247        C260   1.249       .  A
O247       Co255   1.908       .  S
O248        C261   1.267       .  A
O248       Co256   2.067       .  S
O249        C262   1.267       .  A
O249       Co257   2.067       .  S
O250        C262   1.252       .  A
O250       Co255   1.975       .  S
O251        C261   1.252       .  A
O251       Co254   1.975       .  S
O252        C259   1.274       .  A
O252       Co257   2.008       .  S
O253        C260   1.274       .  A
O253       Co256   2.008       .  S
Co254       O258   2.108       .  S
Co255       O258   2.108       .  S
Co256       O258   2.108       .  S
Co257       O258   2.108       .  S
C259        C938   1.383       .  S
C260        C936   1.383       .  S
C261        C953   1.475       .  S
C262        C943   1.475       .  S
O263        C271   1.249   1_455  A
O263       Co283   1.907       .  S
O264        C272   1.249   1_655  A
O264       Co284   1.907       .  S
O265        C273   1.267       .  A
O265       Co285   2.068       .  S
O266        C274   1.267       .  A
O266       Co286   2.067       .  S
O267        C273   1.252       .  A
O267       Co284   1.975       .  S
O268        C274   1.252       .  A
O268       Co283   1.975       .  S
O269        C272   1.274       .  A
O269       Co286   2.008       .  S
O270        C271   1.274       .  A
O270       Co285   2.008       .  S
C271       C1041   1.383       .  S
C272        C928   1.383       .  S
C273        C931   1.475       .  S
C274        C933   1.475       .  S
O275        C288   1.274       .  A
O275       Co283   2.008       .  S
O276        C289   1.274       .  A
O276       Co284   2.008       .  S
O277        C290   1.252       .  A
O277       Co285   1.975   1_455  S
O278        C291   1.252       .  A
O278       Co286   1.975   1_655  S
O279        C291   1.267       .  A
O279       Co284   2.067       .  S
O280        C290   1.267       .  A
O280       Co283   2.068       .  S
O281        C288   1.249       .  A
O281       Co286   1.908       .  S
O282        C289   1.249       .  A
O282       Co285   1.907       .  S
Co283       O287   2.108       .  S
Co284       O287   2.108   1_655  S
Co285       O287   2.108   1_655  S
Co286       O287   2.108       .  S
C288        C926   1.383       .  S
C289        C923   1.383       .  S
C290       C1037   1.475       .  S
C291        C930   1.475       .  S
C292        C293   1.439       .  A
C292        C297   1.439       .  A
C292        C920   1.488       .  S
C293        C294   1.439       .  A
C293        C915   1.488       .  S
C294        C295   1.439       .  A
C294        C934   1.488       .  S
C295        C296   1.439       .  A
C295        C914   1.488       .  S
C296        C297   1.439       .  A
C296        C922   1.488       .  S
C297        C918   1.488       .  S
O298        C306   1.249   1_554  A
O298       Co318   1.907       .  S
O299        C307   1.249   1_556  A
O299       Co319   1.907       .  S
O300        C308   1.267       .  A
O300       Co320   2.068       .  S
O301        C309   1.267       .  A
O301       Co321   2.067       .  S
O302        C308   1.252       .  A
O302       Co319   1.975       .  S
O303        C309   1.252       .  A
O303       Co318   1.975       .  S
O304        C307   1.274       .  A
O304       Co321   2.008       .  S
O305        C306   1.274       .  A
O305       Co320   2.008       .  S
C306       C1056   1.383       .  S
C307        C906   1.383       .  S
C308        C912   1.475       .  S
C309        C921   1.475       .  S
O310        C323   1.274       .  A
O310       Co318   2.008       .  S
O311        C324   1.274       .  A
O311       Co319   2.008       .  S
O312        C325   1.252       .  A
O312       Co320   1.975   1_554  S
O313        C326   1.252       .  A
O313       Co321   1.975   1_556  S
O314        C326   1.267       .  A
O314       Co319   2.067       .  S
O315        C325   1.267       .  A
O315       Co318   2.068       .  S
O316        C323   1.249       .  A
O316       Co321   1.908       .  S
O317        C324   1.249       .  A
O317       Co320   1.907       .  S
Co318       O322   2.108   1_554  S
Co319       O322   2.108       .  S
Co320       O322   2.108       .  S
Co321       O322   2.108   1_554  S
C323        C904   1.383       .  S
C324        C901   1.383       .  S
C325        C907   1.475       .  S
C326        C910   1.475       .  S
C327        C328   1.439       .  A
C327        C332   1.439       .  A
C327        C911   1.488       .  S
C328        C329   1.439       .  A
C328       C1064   1.488       .  S
C329        C330   1.439       .  A
C329        C896   1.488       .  S
C330        C331   1.439       .  A
C330        C894   1.488       .  S
C331        C332   1.439       .  A
C331        C900   1.488       .  S
C332        C897   1.488       .  S
O333        C341   1.274       .  A
O333       Co353   2.008       .  S
O334        C342   1.274       .  A
O334       Co354   2.008       .  S
O335        C343   1.252       .  A
O335       Co355   1.975       .  S
O336        C344   1.252       .  A
O336       Co356   1.975       .  S
O337        C343   1.267       .  A
O337       Co354   2.067       .  S
O338        C344   1.267       .  A
O338       Co353   2.068       .  S
O339        C342   1.249       .  A
O339       Co356   1.907       .  S
O340        C341   1.249       .  A
O340       Co355   1.907       .  S
C341        C881   1.383       .  S
C342        C886   1.383       .  S
C343        C892   1.475       .  S
C344        C890   1.475       .  S
O345        C358   1.249       .  A
O345       Co353   1.907       .  S
O346        C359   1.249       .  A
O346       Co354   1.908       .  S
O347        C360   1.267       .  A
O347       Co355   2.067       .  S
O348        C361   1.267       .  A
O348       Co356   2.068       .  S
O349        C361   1.252       .  A
O349       Co354   1.975       .  S
O350        C360   1.252       .  A
O350       Co353   1.975       .  S
O351        C358   1.274       .  A
O351       Co356   2.008       .  S
O352        C359   1.274       .  A
O352       Co355   2.008       .  S
Co353       O357   2.108       .  S
Co354       O357   2.108       .  S
Co355       O357   2.108       .  S
Co356       O357   2.108       .  S
C358        C887   1.383       .  S
C359        C883   1.383       .  S
C360        C950   1.475       .  S
C361        C899   1.475       .  S
O362        C370   1.249   1_545  A
O362       Co382   1.907       .  S
O363        C371   1.249   1_565  A
O363       Co383   1.907       .  S
O364        C372   1.267       .  A
O364       Co384   2.068       .  S
O365        C373   1.267       .  A
O365       Co385   2.067       .  S
O366        C372   1.252       .  A
O366       Co383   1.975       .  S
O367        C373   1.252       .  A
O367       Co382   1.975       .  S
O368        C371   1.274       .  A
O368       Co385   2.008       .  S
O369        C370   1.274       .  A
O369       Co384   2.008       .  S
C370       C1008   1.383       .  S
C371        C875   1.383       .  S
C372        C988   1.475       .  S
C373        C919   1.475       .  S
O374        C387   1.274       .  A
O374       Co382   2.008       .  S
O375        C388   1.274       .  A
O375       Co383   2.008       .  S
O376        C389   1.252       .  A
O376       Co384   1.975   1_545  S
O377        C390   1.252       .  A
O377       Co385   1.975   1_565  S
O378        C390   1.267       .  A
O378       Co383   2.067       .  S
O379        C389   1.267       .  A
O379       Co382   2.067       .  S
O380        C387   1.249       .  A
O380       Co385   1.908       .  S
O381        C388   1.249       .  A
O381       Co384   1.907       .  S
Co382       O386   2.108   1_545  S
Co383       O386   2.108       .  S
Co384       O386   2.108       .  S
Co385       O386   2.108   1_545  S
C387        C874   1.383       .  S
C388        C871   1.383       .  S
C389        C877   1.475       .  S
C390        C879   1.475       .  S
C391        C392   1.439       .  A
C391        C396   1.439       .  A
C391        C891   1.488       .  S
C392        C393   1.439   1_545  A
C392        C865   1.488       .  S
C393        C394   1.439       .  A
C393        C880   1.488       .  S
C394        C395   1.439       .  A
C394        C869   1.488       .  S
C395        C396   1.439   1_565  A
C395        C864   1.488       .  S
C396        C868   1.488       .  S
O397        C405   1.249       .  A
O397       Co417   1.907       .  S
O398        C406   1.249       .  A
O398       Co418   1.908       .  S
O399        C407   1.267       .  A
O399       Co419   2.067       .  S
O400        C408   1.267       .  A
O400       Co420   2.067       .  S
O401        C407   1.252       .  A
O401       Co418   1.975       .  S
O402        C408   1.252       .  A
O402       Co417   1.975       .  S
O403        C406   1.274       .  A
O403       Co420   2.008       .  S
O404        C405   1.274       .  A
O404       Co419   2.008       .  S
C405        C978   1.383       .  S
C406        C857   1.383       .  S
C407        C859   1.475       .  S
C408        C870   1.475       .  S
O409        C422   1.274       .  A
O409       Co417   2.008       .  S
O410        C423   1.274       .  A
O410       Co418   2.008       .  S
O411        C424   1.252       .  A
O411       Co419   1.975       .  S
O412        C425   1.252       .  A
O412       Co420   1.975       .  S
O413        C425   1.267       .  A
O413       Co418   2.067       .  S
O414        C424   1.267       .  A
O414       Co417   2.067       .  S
O415        C422   1.249       .  A
O415       Co420   1.907       .  S
O416        C423   1.249       .  A
O416       Co419   1.907       .  S
Co417       O421   2.108       .  S
Co418       O421   2.108       .  S
Co419       O421   2.108       .  S
Co420       O421   2.108       .  S
C422        C872   1.383       .  S
C423        C855   1.383       .  S
C424        C986   1.475       .  S
C425        C861   1.475       .  S
O426        C434   1.249       .  A
O426       Co446   1.907       .  S
O427        C435   1.249       .  A
O427       Co447   1.907       .  S
O428        C436   1.267       .  A
O428       Co448   2.067       .  S
O429        C437   1.267       .  A
O429       Co449   2.068       .  S
O430        C436   1.252       .  A
O430       Co447   1.975   1_565  S
O431        C437   1.252       .  A
O431       Co446   1.975   1_545  S
O432        C435   1.274       .  A
O432       Co449   2.008       .  S
O433        C434   1.274       .  A
O433       Co448   2.008       .  S
C434        C956   1.383       .  S
C435        C884   1.383       .  S
C436        C854   1.475       .  S
C437        C867   1.475       .  S
O438        C451   1.274       .  A
O438       Co446   2.008       .  S
O439        C452   1.274       .  A
O439       Co447   2.008       .  S
O440        C453   1.252       .  A
O440       Co448   1.975       .  S
O441        C454   1.252       .  A
O441       Co449   1.975       .  S
O442        C454   1.267       .  A
O442       Co447   2.067       .  S
O443        C453   1.267       .  A
O443       Co446   2.067       .  S
O444        C451   1.249   1_545  A
O444       Co449   1.907       .  S
O445        C452   1.249   1_565  A
O445       Co448   1.908       .  S
Co446       O450   2.108       .  S
Co447       O450   2.108   1_545  S
Co448       O450   2.108       .  S
Co449       O450   2.108   1_545  S
C451        C849   1.383       .  S
C452        C848   1.383       .  S
C453        C852   1.475       .  S
C454        C946   1.475       .  S
C455        C456   1.439       .  A
C455        C460   1.439   1_565  A
C455        C853   1.488       .  S
C456        C457   1.439   1_556  A
C456        C966   1.488       .  S
C457        C458   1.439   1_565  A
C457       C1016   1.488       .  S
C458        C459   1.439       .  A
C458        C878   1.488       .  S
C459        C460   1.439   1_554  A
C459        C845   1.488       .  S
C460        C844   1.488       .  S
O461        C469   1.249       .  A
O461       Co481   1.908       .  S
O462        C470   1.249       .  A
O462       Co482   1.907       .  S
O463        C471   1.267       .  A
O463       Co483   2.068       .  S
O464        C472   1.267       .  A
O464       Co484   2.067       .  S
O465        C471   1.252       .  A
O465       Co482   1.975       .  S
O466        C472   1.252       .  A
O466       Co481   1.975       .  S
O467        C470   1.274       .  A
O467       Co484   2.008       .  S
O468        C469   1.274       .  A
O468       Co483   2.008       .  S
C469        C905   1.383       .  S
C470        C837   1.383       .  S
C471        C840   1.475       .  S
C472        C846   1.475       .  S
O473        C486   1.274       .  A
O473       Co481   2.008       .  S
O474        C487   1.274       .  A
O474       Co482   2.008       .  S
O475        C488   1.252       .  A
O475       Co483   1.975       .  S
O476        C489   1.252       .  A
O476       Co484   1.975       .  S
O477        C489   1.267       .  A
O477       Co482   2.067       .  S
O478        C488   1.267       .  A
O478       Co481   2.067       .  S
O479        C486   1.249       .  A
O479       Co484   1.908       .  S
O480        C487   1.249       .  A
O480       Co483   1.907       .  S
Co481       O485   2.108       .  S
Co482       O485   2.108       .  S
Co483       O485   2.108       .  S
Co484       O485   2.108       .  S
C486        C873   1.383       .  S
C487        C835   1.383       .  S
C488        C917   1.475       .  S
C489        C841   1.475       .  S
O490        C498   1.274       .  A
O490       Co510   2.008       .  S
O491        C499   1.274       .  A
O491       Co511   2.008       .  S
O492        C500   1.252       .  A
O492       Co512   1.975       .  S
O493        C501   1.252       .  A
O493       Co513   1.975       .  S
O494        C500   1.267       .  A
O494       Co511   2.067       .  S
O495        C501   1.267       .  A
O495       Co510   2.067       .  S
O496        C499   1.249       .  A
O496       Co513   1.907       .  S
O497        C498   1.249       .  A
O497       Co512   1.908       .  S
C498        C925   1.383       .  S
C499        C885   1.383       .  S
C500        C893   1.475       .  S
C501        C916   1.475       .  S
O502        C515   1.249       .  A
O502       Co510   1.908       .  S
O503        C516   1.249       .  A
O503       Co511   1.907       .  S
O504        C517   1.267       .  A
O504       Co512   2.067       .  S
O505        C518   1.267       .  A
O505       Co513   2.068       .  S
O506        C518   1.252       .  A
O506       Co511   1.975       .  S
O507        C517   1.252       .  A
O507       Co510   1.975       .  S
O508        C515   1.274       .  A
O508       Co513   2.008       .  S
O509        C516   1.274       .  A
O509       Co512   2.008       .  S
Co510       O514   2.108       .  S
Co511       O514   2.108       .  S
Co512       O514   2.108       .  S
Co513       O514   2.108       .  S
C515        C876   1.383       .  S
C516        C834   1.383       .  S
C517       C1034   1.475       .  S
C518        C866   1.475       .  S
C519        C520   1.439       .  A
C519        C524   1.439       .  A
C519       C1050   1.488       .  S
C520        C521   1.439       .  A
C520        C827   1.488       .  S
C521        C522   1.439       .  A
C521        C862   1.488       .  S
C522        C523   1.439       .  A
C522        C832   1.488       .  S
C523        C524   1.439       .  A
C523        C829   1.488       .  S
C524       C1000   1.488       .  S
O525        C533   1.274       .  A
O525       Co545   2.008       .  S
O526        C534   1.274       .  A
O526       Co546   2.008       .  S
O527        C535   1.252       .  A
O527       Co547   1.975       .  S
O528        C536   1.252       .  A
O528       Co548   1.975       .  S
O529        C535   1.267       .  A
O529       Co546   2.067       .  S
O530        C536   1.267       .  A
O530       Co545   2.067       .  S
O531        C534   1.249       .  A
O531       Co548   1.907       .  S
O532        C533   1.249       .  A
O532       Co547   1.908       .  S
C533        C856   1.383       .  S
C534        C836   1.383       .  S
C535        C821   1.475       .  S
C536        C824   1.475       .  S
O537        C550   1.249       .  A
O537       Co545   1.908       .  S
O538        C551   1.249       .  A
O538       Co546   1.907       .  S
O539        C552   1.267       .  A
O539       Co547   2.067       .  S
O540        C553   1.267       .  A
O540       Co548   2.068       .  S
O541        C553   1.252       .  A
O541       Co546   1.975       .  S
O542        C552   1.252       .  A
O542       Co545   1.975       .  S
O543        C550   1.274       .  A
O543       Co548   2.008       .  S
O544        C551   1.274       .  A
O544       Co547   2.008       .  S
Co545       O549   2.108       .  S
Co546       O549   2.108       .  S
Co547       O549   2.108       .  S
Co548       O549   2.108       .  S
C550        C818   1.383       .  S
C551        C820   1.383       .  S
C552        C831   1.475       .  S
C553        C825   1.475       .  S
C554        C555   1.439       .  A
C554        C559   1.439       .  A
C554        C842   1.488       .  S
C555        C556   1.439       .  A
C555        C814   1.488       .  S
C556        C557   1.439       .  A
C556       C1052   1.488       .  S
C557        C558   1.439       .  A
C557        C932   1.488       .  S
C558        C559   1.439       .  A
C558        C816   1.488       .  S
C559        C826   1.488       .  S
C560        C561   1.439       .  A
C560        C565   1.439       .  A
C560        C812   1.488       .  S
C561        C562   1.439       .  A
C561        C944   1.488       .  S
C562        C563   1.439       .  A
C562       C1029   1.488       .  S
C563        C564   1.439       .  A
C563        C809   1.488       .  S
C564        C565   1.439       .  A
C564        C851   1.488       .  S
C565        C964   1.488       .  S
O566        C574   1.249   1_545  A
O566       Co586   1.908       .  S
O567        C575   1.249   1_565  A
O567       Co587   1.907       .  S
O568        C576   1.267       .  A
O568       Co588   2.067       .  S
O569        C577   1.267       .  A
O569       Co589   2.068       .  S
O570        C576   1.252       .  A
O570       Co587   1.975       .  S
O571        C577   1.252       .  A
O571       Co586   1.975       .  S
O572        C575   1.274       .  A
O572       Co589   2.008       .  S
O573        C574   1.274       .  A
O573       Co588   2.008       .  S
C574       C1010   1.383       .  S
C575        C833   1.383       .  S
C576        C968   1.475       .  S
C577        C895   1.475       .  S
O578        C591   1.274       .  A
O578       Co586   2.008       .  S
O579        C592   1.274       .  A
O579       Co587   2.008       .  S
O580        C593   1.252       .  A
O580       Co588   1.975   1_545  S
O581        C594   1.252       .  A
O581       Co589   1.975   1_565  S
O582        C594   1.267       .  A
O582       Co587   2.068       .  S
O583        C593   1.267       .  A
O583       Co586   2.067       .  S
O584        C591   1.249       .  A
O584       Co589   1.907       .  S
O585        C592   1.249       .  A
O585       Co588   1.908       .  S
Co586       O590   2.108   1_545  S
Co587       O590   2.108       .  S
Co588       O590   2.108       .  S
Co589       O590   2.108   1_545  S
C591       C1058   1.383       .  S
C592       C1017   1.383       .  S
C593       C1072   1.475       .  S
C594       C1036   1.475       .  S
O595        C603   1.249       .  A
O595       Co615   1.908       .  S
O596        C604   1.249       .  A
O596       Co616   1.907       .  S
O597        C605   1.267       .  A
O597       Co617   2.068       .  S
O598        C606   1.267       .  A
O598       Co618   2.067       .  S
O599        C605   1.252       .  A
O599       Co616   1.975       .  S
O600        C606   1.252       .  A
O600       Co615   1.975       .  S
O601        C604   1.274       .  A
O601       Co618   2.008       .  S
O602        C603   1.274       .  A
O602       Co617   2.008       .  S
C603        C935   1.383       .  S
C604        C817   1.383       .  S
C605        C807   1.475       .  S
C606        C806   1.475       .  S
O607        C620   1.274       .  A
O607       Co615   2.008       .  S
O608        C621   1.274       .  A
O608       Co616   2.008       .  S
O609        C622   1.252       .  A
O609       Co617   1.975       .  S
O610        C623   1.252       .  A
O610       Co618   1.975       .  S
O611        C623   1.267       .  A
O611       Co616   2.067       .  S
O612        C622   1.267       .  A
O612       Co615   2.067       .  S
O613        C620   1.249       .  A
O613       Co618   1.907       .  S
O614        C621   1.249       .  A
O614       Co617   1.907       .  S
Co615       O619   2.108       .  S
Co616       O619   2.108       .  S
Co617       O619   2.108       .  S
Co618       O619   2.108       .  S
C620        C882   1.383       .  S
C621        C924   1.383       .  S
C622        C952   1.475       .  S
C623        C815   1.475       .  S
C624        C625   1.439       .  A
C624        C629   1.439       .  A
C624        C982   1.488       .  S
C625        C626   1.439   1_455  A
C625       C1028   1.488       .  S
C626        C627   1.439       .  A
C626        C940   1.488       .  S
C627        C628   1.439       .  A
C627        C808   1.488       .  S
C628        C629   1.439   1_655  A
C628        C929   1.488       .  S
C629        C804   1.488       .  S
O630        C638   1.274       .  A
O630       Co650   2.008       .  S
O631        C639   1.274       .  A
O631       Co651   2.008       .  S
O632        C640   1.252       .  A
O632       Co652   1.975       .  S
O633        C641   1.252       .  A
O633       Co653   1.975       .  S
O634        C640   1.267       .  A
O634       Co651   2.068       .  S
O635        C641   1.267       .  A
O635       Co650   2.067       .  S
O636        C639   1.249   1_554  A
O636       Co653   1.907       .  S
O637        C638   1.249   1_556  A
O637       Co652   1.907       .  S
C638        C993   1.383       .  S
C639        C958   1.383       .  S
C640        C811   1.475       .  S
C641        C830   1.475       .  S
O642        C655   1.249       .  A
O642       Co650   1.908       .  S
O643        C656   1.249       .  A
O643       Co651   1.907       .  S
O644        C657   1.267       .  A
O644       Co652   2.067       .  S
O645        C658   1.267       .  A
O645       Co653   2.068       .  S
O646        C658   1.252       .  A
O646       Co651   1.975   1_554  S
O647        C657   1.252       .  A
O647       Co650   1.975   1_556  S
O648        C655   1.274       .  A
O648       Co653   2.008       .  S
O649        C656   1.274       .  A
O649       Co652   2.008       .  S
Co650       O654   2.108       .  S
Co651       O654   2.108   1_556  S
Co652       O654   2.108   1_556  S
Co653       O654   2.108       .  S
C655        C819   1.383       .  S
C656        C937   1.383       .  S
C657        C799   1.475       .  S
C658        C802   1.475       .  S
C659        C660   1.439       .  A
C659        C664   1.439       .  A
C659        C822   1.488       .  S
C660        C661   1.439   1_554  A
C660        C801   1.488       .  S
C661        C662   1.439       .  A
C661        C962   1.488       .  S
C662        C663   1.439       .  A
C662        C797   1.488       .  S
C663        C664   1.439   1_556  A
C663        C909   1.488       .  S
C664        C839   1.488       .  S
O665        C673   1.249   1_554  A
O665       Co685   1.908       .  S
O666        C674   1.249   1_556  A
O666       Co686   1.907       .  S
O667        C675   1.267       .  A
O667       Co687   2.067       .  S
O668        C676   1.267       .  A
O668       Co688   2.067       .  S
O669        C675   1.252       .  A
O669       Co686   1.975       .  S
O670        C676   1.252       .  A
O670       Co685   1.975       .  S
O671        C674   1.274       .  A
O671       Co688   2.008       .  S
O672        C673   1.274       .  A
O672       Co687   2.008       .  S
C673       C1062   1.383       .  S
C674        C838   1.383       .  S
C675        C948   1.475       .  S
C676        C813   1.475       .  S
O677        C690   1.274       .  A
O677       Co685   2.008       .  S
O678        C691   1.274       .  A
O678       Co686   2.008       .  S
O679        C692   1.252       .  A
O679       Co687   1.975   1_554  S
O680        C693   1.252       .  A
O680       Co688   1.975   1_556  S
O681        C693   1.267       .  A
O681       Co686   2.068       .  S
O682        C692   1.267       .  A
O682       Co685   2.067       .  S
O683        C690   1.249       .  A
O683       Co688   1.907       .  S
O684        C691   1.249       .  A
O684       Co687   1.908       .  S
Co685       O689   2.108       .  S
Co686       O689   2.108   1_556  S
Co687       O689   2.108   1_556  S
Co688       O689   2.108       .  S
C690       C1044   1.383       .  S
C691        C847   1.383       .  S
C692       C1070   1.475       .  S
C693        C843   1.475       .  S
O694        C702   1.274       .  A
O694       Co714   2.008       .  S
O695        C703   1.274       .  A
O695       Co715   2.008       .  S
O696        C704   1.252       .  A
O696       Co716   1.975       .  S
O697        C705   1.252       .  A
O697       Co717   1.975       .  S
O698        C704   1.267       .  A
O698       Co715   2.068       .  S
O699        C705   1.267       .  A
O699       Co714   2.067       .  S
O700        C703   1.249       .  A
O700       Co717   1.907       .  S
O701        C702   1.249       .  A
O701       Co716   1.907       .  S
C702        C976   1.383       .  S
C703        C902   1.383       .  S
C704        C898   1.475       .  S
C705        C970   1.475       .  S
O706        C719   1.249       .  A
O706       Co714   1.908       .  S
O707        C720   1.249       .  A
O707       Co715   1.907       .  S
O708        C721   1.267       .  A
O708       Co716   2.067       .  S
O709        C722   1.267       .  A
O709       Co717   2.067       .  S
O710        C722   1.252       .  A
O710       Co715   1.975       .  S
O711        C721   1.252       .  A
O711       Co714   1.975       .  S
O712        C719   1.274       .  A
O712       Co717   2.008       .  S
O713        C720   1.274       .  A
O713       Co716   2.008       .  S
Co714       O718   2.108       .  S
Co715       O718   2.108       .  S
Co716       O718   2.108       .  S
Co717       O718   2.108       .  S
C719        C960   1.383       .  S
C720        C888   1.383       .  S
C721        C795   1.475       .  S
C722        C798   1.475       .  S
O723        C731   1.274       .  A
O723       Co743   2.008       .  S
O724        C732   1.274       .  A
O724       Co744   2.008       .  S
O725        C733   1.252       .  A
O725       Co745   1.975       .  S
O726        C734   1.252       .  A
O726       Co746   1.975       .  S
O727        C733   1.267       .  A
O727       Co744   2.067       .  S
O728        C734   1.267       .  A
O728       Co743   2.068       .  S
O729        C732   1.249       .  A
O729       Co746   1.907       .  S
O730        C731   1.249       .  A
O730       Co745   1.908       .  S
C731       C1045   1.383       .  S
C732        C850   1.383       .  S
C733        C863   1.475       .  S
C734       C1032   1.475       .  S
O735        C748   1.249       .  A
O735       Co743   1.907       .  S
O736        C749   1.249       .  A
O736       Co744   1.908       .  S
O737        C750   1.267       .  A
O737       Co745   2.067       .  S
O738        C751   1.267       .  A
O738       Co746   2.067       .  S
O739        C751   1.252       .  A
O739       Co744   1.975       .  S
O740        C750   1.252       .  A
O740       Co743   1.975       .  S
O741        C748   1.274       .  A
O741       Co746   2.008       .  S
O742        C749   1.274       .  A
O742       Co745   2.008       .  S
Co743       O747   2.108       .  S
Co744       O747   2.108       .  S
Co745       O747   2.108       .  S
Co746       O747   2.108       .  S
C748       C1024   1.383       .  S
C749        C858   1.383       .  S
C750        C828   1.475       .  S
C751        C810   1.475       .  S
O752        C760   1.249       .  A
O752       Co772   1.907       .  S
O753        C761   1.249       .  A
O753       Co773   1.908       .  S
O754        C762   1.267       .  A
O754       Co774   2.067       .  S
O755        C763   1.267       .  A
O755       Co775   2.068       .  S
O756        C762   1.252       .  A
O756       Co773   1.975       .  S
O757        C763   1.252       .  A
O757       Co772   1.975       .  S
O758        C761   1.274       .  A
O758       Co775   2.008       .  S
O759        C760   1.274       .  A
O759       Co774   2.008       .  S
C760        C995   1.383       .  S
C761        C927   1.383       .  S
C762        C794   1.475       .  S
C763        C803   1.475       .  S
O764        C777   1.274       .  A
O764       Co772   2.008       .  S
O765        C778   1.274       .  A
O765       Co773   2.008       .  S
O766        C779   1.252       .  A
O766       Co774   1.975       .  S
O767        C780   1.252       .  A
O767       Co775   1.975       .  S
O768        C780   1.267       .  A
O768       Co773   2.067       .  S
O769        C779   1.267       .  A
O769       Co772   2.068       .  S
O770        C777   1.249       .  A
O770       Co775   1.907       .  S
O771        C778   1.249       .  A
O771       Co774   1.908       .  S
Co772       O776   2.108       .  S
Co773       O776   2.108       .  S
Co774       O776   2.108       .  S
Co775       O776   2.108       .  S
C777        C974   1.383       .  S
C778        C903   1.383       .  S
C779        C990   1.475       .  S
C780        C913   1.475       .  S
C781        C782   1.439       .  A
C781        C786   1.439       .  A
C781        C796   1.488       .  S
C782        C783   1.439       .  A
C782        C979   1.488       .  S
C783        C784   1.439       .  A
C783        C860   1.488       .  S
C784        C785   1.439       .  A
C784        C823   1.488       .  S
C785        C786   1.439       .  A
C785        C805   1.488       .  S
C786        C889   1.488       .  S
C787        C788   1.439       .  A
C787        C792   1.439   1_455  A
C787        C793   1.488       .  S
C788        C789   1.439   1_554  A
C788        C908   1.488       .  S
C789        C790   1.439   1_455  A
C789       C1065   1.488       .  S
C790        C791   1.439       .  A
C790        C942   1.488       .  S
C791        C792   1.439   1_556  A
C791        C800   1.488       .  S
C792        C997   1.488       .  S
C793        C794   1.230       .  T
C795        C796   1.230       .  T
C797        C798   1.230       .  T
C799        C800   1.230       .  T
C801        C802   1.230       .  T
C803        C804   1.230       .  T
C805        C806   1.230       .  T
C807        C808   1.230       .  T
C809        C810   1.230       .  T
C811        C812   1.230       .  T
C813        C814   1.230       .  T
C815        C816   1.230       .  T
C817        C818   1.173       .  T
C819        C820   1.173       .  T
C821        C822   1.230       .  T
C823        C824   1.230       .  T
C825        C826   1.230       .  T
C827        C828   1.230       .  T
C829        C830   1.230       .  T
C831        C832   1.230       .  T
C833        C834   1.173       .  T
C835        C836   1.173       .  T
C837        C838   1.173       .  T
C839        C840   1.230       .  T
C841        C842   1.230       .  T
C843        C844   1.230       .  T
C845        C846   1.230       .  T
C847        C848   1.173       .  T
C849        C850   1.173       .  T
C851        C852   1.230       .  T
C853        C854   1.230       .  T
C855        C856   1.173       .  T
C857        C858   1.173       .  T
C859        C860   1.230       .  T
C861        C862   1.230       .  T
C863        C864   1.230       .  T
C865        C866   1.230       .  T
C867        C868   1.230       .  T
C869        C870   1.230       .  T
C871        C872   1.173       .  T
C873        C874   1.173       .  T
C875        C876   1.173       .  T
C877        C878   1.230       .  T
C879        C880   1.230       .  T
C881        C882   1.173       .  T
C883        C884   1.173       .  T
C885        C886   1.173       .  T
C887        C888   1.173       .  T
C889        C890   1.230       .  T
C891        C892   1.230       .  T
C893        C894   1.230       .  T
C895        C896   1.230       .  T
C897        C898   1.230       .  T
C899        C900   1.230       .  T
C901        C902   1.173       .  T
C903        C904   1.173       .  T
C905        C906   1.173       .  T
C907        C908   1.230       .  T
C909        C910   1.230       .  T
C911        C912   1.230       .  T
C913        C914   1.230       .  T
C915        C916   1.230       .  T
C917        C918   1.230       .  T
C919        C920   1.230       .  T
C921        C922   1.230       .  T
C923        C924   1.173       .  T
C925        C926   1.173       .  T
C927        C928   1.173       .  T
C929        C930   1.230       .  T
C931        C932   1.230       .  T
C933        C934   1.230       .  T
C935        C936   1.173       .  T
C937        C938   1.173       .  T
C939        C940   1.230       .  T
C941        C942   1.230       .  T
C943        C944   1.230       .  T
C945        C946   1.230       .  T
C947        C948   1.230       .  T
C949        C950   1.230       .  T
C951        C952   1.230       .  T
C953        C954   1.230       .  T
C955        C956   1.173       .  T
C957        C958   1.173       .  T
C959        C960   1.173       .  T
C961        C962   1.230       .  T
C963        C964   1.230       .  T
C965        C966   1.230       .  T
C967        C968   1.230       .  T
C969        C970   1.230       .  T
C971        C972   1.230       .  T
C973        C974   1.173       .  T
C975        C976   1.173       .  T
C977        C978   1.173       .  T
C979        C980   1.230       .  T
C981        C982   1.230       .  T
C983        C984   1.230       .  T
C985        C986   1.230       .  T
C987        C988   1.230       .  T
C989        C990   1.230       .  T
C991        C992   1.230       .  T
C993        C994   1.173       .  T
C995        C996   1.173       .  T
C997        C998   1.230       .  T
C999       C1000   1.230       .  T
C1001      C1002   1.230       .  T
C1003      C1004   1.173       .  T
C1005      C1006   1.173       .  T
C1007      C1008   1.173       .  T
C1009      C1010   1.173       .  T
C1011      C1012   1.230       .  T
C1013      C1014   1.230       .  T
C1015      C1016   1.230       .  T
C1017      C1018   1.173       .  T
C1019      C1020   1.173       .  T
C1021      C1022   1.173       .  T
C1023      C1024   1.173       .  T
C1025      C1026   1.230       .  T
C1027      C1028   1.230       .  T
C1029      C1030   1.230       .  T
C1031      C1032   1.230       .  T
C1033      C1034   1.230       .  T
C1035      C1036   1.230       .  T
C1037      C1038   1.230       .  T
C1039      C1040   1.230       .  T
C1041      C1042   1.173       .  T
C1043      C1044   1.173       .  T
C1045      C1046   1.173       .  T
C1047      C1048   1.173       .  T
C1049      C1050   1.230       .  T
C1051      C1052   1.230       .  T
C1053      C1054   1.230       .  T
C1055      C1056   1.173       .  T
C1057      C1058   1.173       .  T
C1059      C1060   1.173       .  T
C1061      C1062   1.173       .  T
C1063      C1064   1.230       .  T
C1065      C1066   1.230       .  T
C1067      C1068   1.230       .  T
C1069      C1070   1.230       .  T
C1071      C1072   1.230       .  T
C1073      C1074   1.230       .  T
C1075      C1076   1.230       .  T
C1077      C1078   1.230       .  T
C1079      C1080   1.230       .  T
