geometry optimzed in LAMMPS
_audit_creation_date              2020-11-30 
_audit_creation_method            'lammps2cif' 
_symmetry_space_group_name_H-M    'P1' 
_symmetry_Int_Tables_number       1 
_symmetry_cell_setting            triclinic 
loop_ 
_symmetry_equiv_pos_as_xyz 
  x,y,z 
_cell_length_a                    35.57446928 
_cell_length_b                    35.554119818122885 
_cell_length_c                    35.54790714491149 
_cell_angle_alpha                 90.07925101261598 
_cell_angle_beta                  89.73144030532406 
_cell_angle_gamma                 89.99245681702129 
loop_ 
_atom_site_label 
_atom_site_type_symbol 
_atom_site_fract_x 
_atom_site_fract_y 
_atom_site_fract_z 
_atom_site_charge 
C1          C  0.23277444  0.32858409  0.53832037     0.02600
C2          C  0.32655494  0.29658299  0.97065032    -0.13600
C3          C  0.29320904  0.27577245  0.96604405     0.00100
C4          C  0.25931735  0.29454292  0.95705147    -0.12100
C5          C  0.16260990  0.32978951  0.54705015     0.02600
C6          C  0.19815282  0.34829159  0.54169379    -0.11500
H7          H  0.35291368  0.28328958  0.97736941     0.08200
H8          H  0.23431448  0.27892155  0.94981138     0.05700
H9          H  0.19885890  0.37852761  0.53867151     0.05500
C10         C  0.23381044  0.17849582  0.51507741     0.02600
C11         C  0.22959845  0.20932920  0.53854329    -0.13600
C12         C  0.29147909  0.23684934  0.98076280     0.00100
C13         C  0.16222291  0.21314824  0.52516895    -0.12100
C14         C  0.16360343  0.17908019  0.50659561     0.02600
C15         C  0.20019421  0.16270067  0.50002496    -0.11500
H16         H  0.35104292  0.22441867  0.97398555     0.08200
H17         H  0.13537487  0.22732431  0.52600121     0.05700
H18         H  0.20271631  0.13780109  0.48268363     0.05500
C19         C  0.33346411  0.98863947  0.24969488     0.02600
C20         C  0.35406270  0.97736536  0.21686567    -0.13600
C21         C  0.33728057  0.97743883  0.18009639     0.00100
C22         C  0.29896240  0.98451812  0.17797903    -0.12100
C23         C  0.27852558  0.99557101  0.21019981     0.02600
C24         C  0.29723368  0.00133715  0.24453031    -0.11500
H25         H  0.38305316  0.96871379  0.21996748     0.08200
H26         H  0.28528888  0.98039309  0.15120157     0.05700
H27         H  0.28288912  0.01346003  0.26849564     0.05500
C28         C  0.17903709  0.00537993  0.24508314     0.02600
C29         C  0.21659295  0.99559389  0.24323962    -0.13600
C30         C  0.23727325  0.99918530  0.20927996     0.00100
C31         C  0.21858941  0.00748720  0.17537813    -0.12100
C32         C  0.18000250  0.01264680  0.17525889     0.02600
C33         C  0.16050013  0.01210928  0.21066316    -0.11500
H34         H  0.22987072  0.98719925  0.26916424     0.08200
H35         H  0.23377706  0.01183476  0.14932906     0.05700
H36         H  0.13076301  0.01840861  0.21187004     0.05500
O37         O  0.30797409  0.00273028  0.41523864    -0.75000
O38         O  0.32635343  0.98649630  0.02608546    -0.75000
O39         O  0.29376698  0.06451306  0.46048770    -0.75100
O40         O  0.32846446  0.45300836  0.02813080    -0.75100
O41         O  0.38682121  0.47359721  0.03858917    -0.75000
O42         O  0.39372412  0.03165197  0.96828993    -0.75000
O43         O  0.38464025  0.96948208  0.01112255    -0.75000
O44         O  0.36639019  0.02312761  0.40564352    -0.75100
Ni45       Ni  0.31485493  0.99926120  0.97265880     1.25400
Ni46       Ni  0.37768411  0.98102597  0.95815851     1.25400
C47         C  0.33642066  0.00753461  0.39308351     0.87200
C48         C  0.35928475  0.97496028  0.03647279     0.87100
C49         C  0.36957504  0.05612204  0.97893864     0.87200
C50         C  0.36371437  0.44707856  0.03192826     0.87300
C51         C  0.37063281  0.96905990  0.07768469     0.79700
N52         N  0.40781815  0.96179988  0.08483345    -0.78600
C53         C  0.42056049  0.95844512  0.12083016     0.82100
N54         N  0.39641516  0.96228478  0.14975510    -0.78600
C55         C  0.35982499  0.96985025  0.14467890     0.82200
N56         N  0.34653805  0.97366842  0.10815649    -0.80300
C57         C  0.33978254  0.17402566  0.49622956     0.79700
N58         N  0.33869987  0.15000548  0.46736046    -0.78600
C59         C  0.30807010  0.12937106  0.45977815     0.82100
N60         N  0.27491079  0.13807586  0.47646052    -0.78600
C61         C  0.27285233  0.16628715  0.50217613     0.82200
N62         N  0.30634132  0.18245441  0.51462923    -0.80300
O63         O  0.06590611  0.06386188  0.35295486    -0.75000
O64         O  0.44317869  0.94776162  0.36863557    -0.75000
O65         O  0.97410321  0.50243164  0.37979689    -0.75100
O66         O  0.48611807  0.00750993  0.38974571    -0.75100
O67         O  0.99249863  0.10196281  0.30127638    -0.75000
O68         O  0.49299741  0.41050196  0.30640113    -0.75000
O69         O  0.45460042  0.95864658  0.30777890    -0.75000
O70         O  0.05327740  0.05386761  0.29230411    -0.75100
Ni71       Ni  0.01627209  0.05629865  0.36920614     1.25400
Ni72       Ni  0.00149645  0.04678854  0.30453399     1.25400
C73         C  0.07661892  0.05947653  0.31885706     0.87200
C74         C  0.43199726  0.95159463  0.33472790     0.87100
C75         C  0.98143179  0.47896274  0.35348655     0.87200
C76         C  0.99606860  0.12304913  0.33072272     0.87300
C77         C  0.98022430  0.16203164  0.33513136     0.79700
N78         N  0.47350437  0.08320533  0.40984715    -0.78600
C79         C  0.95417015  0.19536009  0.38634516     0.82100
N80         N  0.96875043  0.22793892  0.37367632    -0.78600
C81         C  0.98746387  0.22885299  0.34027273     0.82200
N82         N  0.99545881  0.19516501  0.32176742    -0.80300
C83         C  0.16238818  0.02239617  0.34921955     0.79700
N84         N  0.17642450  0.00576041  0.31699672    -0.78600
C85         C  0.16127421  0.01547468  0.28236218     0.82100
N86         N  0.12972238  0.03709206  0.28158024    -0.78600
C87         C  0.11637240  0.05289149  0.31355889     0.82200
N88         N  0.13451951  0.04729232  0.34598171    -0.80300
O89         O  0.19029066  0.01553456  0.41097971    -0.75000
O90         O  0.18239691  0.01020997  0.01763311    -0.75000
O91         O  0.15957493  0.45603611  0.53968434    -0.75100
O92         O  0.20355571  0.05609637  0.95933593    -0.75100
O93         O  0.14368725  0.07311073  0.95175829    -0.75000
O94         O  0.14366208  0.43445883  0.03552557    -0.75000
O95         O  0.12369491  0.03061645  0.01108305    -0.75000
O96         O  0.13237715  0.99399733  0.40107521    -0.75100
Ni97       Ni  0.18759655  0.00471032  0.96237564     1.25400
Ni98       Ni  0.12396248  0.02517540  0.95691798     1.25400
C99         C  0.16358326  0.00723608  0.38823687     0.87200
C100        C  0.15158942  0.02241249  0.03256167     0.87100
C101        C  0.17828921  0.42723149  0.02906320     0.87200
C102        C  0.17829690  0.08134148  0.95549417     0.87300
O103        O  0.03913492  0.05765552  0.10676069    -0.75000
O104        O  0.48608871  0.95187547  0.10570609    -0.75000
O105        O  0.98795903  0.10968701  0.12625151    -0.75100
O106        O  0.02907769  0.50450888  0.11543272    -0.75100
O107        O  0.00711033  0.49331855  0.17304553    -0.75000
O108        O  0.52146583  0.01730380  0.17333371    -0.75000
O109        O  0.46913940  0.96089364  0.16551241    -0.75000
O110        O  0.05479046  0.05333058  0.16740236    -0.75100
Ni111      Ni  0.98831002  0.05610239  0.11967102     1.25400
Ni112      Ni  0.00362107  0.05177780  0.18479975     1.25400
C113        C  0.06363204  0.05482340  0.13223249     0.87200
C114        C  0.46059759  0.95643528  0.13072587     0.87100
C115        C  0.99651052  0.12666645  0.15705585     0.87200
C116        C  0.01894256  0.48090591  0.14102921     0.87300
O117        O  0.55026991  0.11870315  0.02122626    -0.75000
O118        O  0.94074310  0.15467592  0.43448847    -0.75000
O119        O  0.99623555  0.13040689  0.48046923    -0.75100
O120        O  0.39282820  0.14636506  0.52627233    -0.75100
O121        O  0.40147822  0.20318797  0.50167341    -0.75000
O122        O  0.00630516  0.18898039  0.49976940    -0.75000
O123        O  0.46072902  0.17190765  0.46140449    -0.75000
O124        O  0.03421669  0.22277389  0.03647143    -0.75100
Ni125      Ni  0.94193393  0.13622174  0.48348292     1.25400
Ni126      Ni  0.95102774  0.19960748  0.50314505     1.25400
C127        C  0.03608763  0.19697166  0.06147608     0.87200
C128        C  0.94664205  0.18890789  0.42588109     0.87100
C129        C  0.01960470  0.15657386  0.48936480     0.87200
C130        C  0.37907533  0.17647790  0.51159406     0.87300
C131        C  0.00757578  0.16714066  0.15216825     0.79700
N132        N  0.02823382  0.17105753  0.12104928    -0.78600
C133        C  0.02984405  0.20305691  0.10130258     0.82100
N134        N  0.01396921  0.23447002  0.11543234    -0.78600
C135        C  0.99693622  0.23355126  0.14985493     0.82200
N136        N  0.99140381  0.19895983  0.16758514    -0.80300
C137        C  0.14552349  0.02816044  0.07456641     0.79700
N138        N  0.17007937  0.01804645  0.10316303    -0.78600
C139        C  0.15939805  0.02411626  0.14042749     0.82100
N140        N  0.12598201  0.03971928  0.14773834    -0.78600
C141        C  0.10200352  0.04865931  0.12076511     0.82200
N142        N  0.11142957  0.04266764  0.08433059    -0.80300
C143        C  0.06188854  0.14712316  0.48677916     0.79700
N144        N  0.09097226  0.17123082  0.49741296    -0.78600
C145        C  0.12823870  0.15968929  0.49323073     0.82100
N146        N  0.13499348  0.12574621  0.47921366    -0.78600
C147        C  0.10813215  0.10145366  0.47029566     0.82200
N148        N  0.07131041  0.11164923  0.47423846    -0.80300
O149        O  0.04754381  0.40109254  0.02259516    -0.75000
O150        O  0.44372099  0.36425837  0.43888237    -0.75000
O151        O  0.39065183  0.37845728  0.48879944    -0.75100
O152        O  0.99729476  0.38953029  0.53639741    -0.75100
O153        O  0.00773438  0.33076375  0.51764508    -0.75000
O154        O  0.39424010  0.32069624  0.51195303    -0.75000
O155        O  0.95961075  0.34475069  0.45853962    -0.75000
O156        O  0.52642147  0.29554380  0.03258490    -0.75100
Ni157      Ni  0.94317787  0.38661009  0.52798469     1.26600
Ni158      Ni  0.95349906  0.32344213  0.50795783     1.25400
C159        C  0.04255287  0.37825887  0.04952876     0.87200
C160        C  0.95811128  0.38023791  0.45135702     0.87100
C161        C  0.37397946  0.34859195  0.50078179     0.87200
C162        C  0.02050249  0.36219158  0.53044835     0.87300
C163        C  0.02136981  0.43920758  0.13217335     0.79700
N164        N  0.03395433  0.42899668  0.09710988    -0.78600
C165        C  0.03715596  0.39200807  0.08766987     0.82100
N166        N  0.02703032  0.36573521  0.11227952    -0.78600
C167        C  0.01294399  0.37388230  0.14611845     0.82200
N168        N  0.01021427  0.41118856  0.15695898    -0.80300
C169        C  0.06215746  0.36943811  0.53795726     0.79700
N170        N  0.09022043  0.34201499  0.54036200    -0.78600
C171        C  0.12695963  0.35291273  0.54851249     0.82100
N172        N  0.13406185  0.38923676  0.55355351    -0.78600
C173        C  0.10844302  0.41582400  0.54890053     0.82200
N174        N  0.07233398  0.40636789  0.54133983    -0.80300
C175        C  0.97796303  0.43737927  0.36394337     0.79700
N176        N  0.98470527  0.40801433  0.33924363    -0.78600
C177        C  0.98201122  0.37120979  0.35173343     0.82100
N178        N  0.97278864  0.36468017  0.38774504    -0.78600
C179        C  0.96604799  0.39234344  0.41236169     0.82200
N180        N  0.45982293  0.35008546  0.37170779    -0.80300
C181        C  0.34176829  0.98661299  0.35678380     0.79700
N182        N  0.32915577  0.99695475  0.32149884    -0.78600
C183        C  0.34750131  0.98334983  0.28946170     0.82100
N184        N  0.37986880  0.96393344  0.29374365    -0.78600
C185        C  0.39233715  0.95498318  0.32838167     0.82200
N186        N  0.37222562  0.96454913  0.35885590    -0.80300
C187        C  0.33125986  0.35289309  0.50265786     0.79700
N188        N  0.30356907  0.33151102  0.52013466    -0.78600
C189        C  0.26901296  0.34884426  0.52851152     0.82100
N190        N  0.26688199  0.38698698  0.52727028    -0.78600
C191        C  0.29423425  0.40649954  0.51000618     0.82200
N192        N  0.32251851  0.38824966  0.49359742    -0.80300
C193        C  0.98876091  0.33668038  0.32840819     0.02600
C194        C  0.98892054  0.33841877  0.28942715    -0.13600
C195        C  0.99444877  0.30557191  0.26782866     0.00100
C196        C  0.00112116  0.27088826  0.28587627    -0.12100
C197        C  0.99568618  0.26707554  0.32418690     0.02600
C198        C  0.99084107  0.30042983  0.34563321    -0.11500
H199        H  0.98293157  0.36517546  0.27638629     0.08200
H200        H  0.00798321  0.24580284  0.27009226     0.05700
H201        H  0.47984781  0.21396589  0.38143921     0.05500
C202        C  0.00011611  0.34014166  0.16774498     0.02600
C203        C  0.99935407  0.34012143  0.20668609    -0.13600
C204        C  0.99148483  0.30664881  0.22649066     0.00100
C205        C  0.98341375  0.27313791  0.20660457    -0.12100
C206        C  0.98897807  0.27095515  0.16815566     0.02600
C207        C  0.99513653  0.30509095  0.14863311    -0.11500
H208        H  0.00740886  0.36566179  0.22105188     0.08200
H209        H  0.97540665  0.24759938  0.22100732     0.05700
H210        H  0.99824895  0.30386177  0.11836268     0.05500
C211        C  0.32520229  0.33526448  0.97386347     0.02600
C212        C  0.23108112  0.28988689  0.53944632    -0.13600
C213        C  0.19666534  0.27062900  0.54594365     0.00100
C214        C  0.16292787  0.29114443  0.55135926    -0.12100
C215        C  0.25527237  0.33244201  0.96550441     0.02600
C216        C  0.28899215  0.35309018  0.97218767    -0.11500
H217        H  0.25675856  0.27528843  0.53240268     0.08200
H218        H  0.13657909  0.27742819  0.55789655     0.05700
H219        H  0.28666144  0.38272837  0.97878881     0.05500
C220        C  0.32269503  0.17932333  0.00066975     0.02600
C221        C  0.32425833  0.21497139  0.98478567    -0.13600
C222        C  0.19541868  0.22965750  0.53933728     0.00100
C223        C  0.25677733  0.22245883  0.99356571    -0.12100
C224        C  0.25294747  0.18515206  0.00359063     0.02600
C225        C  0.28637252  0.16368655  0.00832077    -0.11500
H226        H  0.25432805  0.21992253  0.55257340     0.08200
H227        H  0.23145350  0.23910143  0.99314657     0.05700
H228        H  0.28389097  0.13427462  0.01581016     0.05500
C229        C  0.32565330  0.02156762  0.74901974     0.02600
C230        C  0.34629020  0.03113746  0.71559884    -0.13600
C231        C  0.32893086  0.03265115  0.67903014     0.00100
C232        C  0.29030951  0.02779314  0.67727955    -0.12100
C233        C  0.26956108  0.01810573  0.70963562     0.02600
C234        C  0.28819841  0.01212496  0.74433557    -0.11500
H235        H  0.37585837  0.03775923  0.71819143     0.08200
H236        H  0.27662954  0.03285488  0.65073157     0.05700
H237        H  0.27333125  0.00187760  0.76881973     0.05500
C238        C  0.17047596  0.00893135  0.74402266     0.02600
C239        C  0.20762144  0.01961547  0.74187335    -0.13600
C240        C  0.22810382  0.01554115  0.70805428     0.00100
C241        C  0.20899475  0.00711804  0.67405909    -0.12100
C242        C  0.17022337  0.00139791  0.67433054     0.02600
C243        C  0.15152611  0.00155501  0.70996721    -0.11500
H244        H  0.22084225  0.02890158  0.76755760     0.08200
H245        H  0.22388097  0.00325380  0.64781088     0.05700
H246        H  0.12191775  0.99485579  0.71162873     0.05500
O247        O  0.30838480  0.01121137  0.91831262    -0.75000
O248        O  0.32025987  0.02725395  0.52341245    -0.75000
O249        O  0.33456639  0.04803915  0.98134661    -0.75100
O250        O  0.28383974  0.47132431  0.52153075    -0.75100
O251        O  0.34049438  0.44603739  0.53120510    -0.75000
O252        O  0.35236045  0.08328303  0.44788730    -0.75000
O253        O  0.37806309  0.04744233  0.51071791    -0.75000
O254        O  0.36711169  0.99329224  0.90646928    -0.75100
Ni255      Ni  0.31159198  0.01488660  0.46946726     1.25400
Ni256      Ni  0.37409360  0.03603595  0.45738519     1.25400
C257        C  0.33571686  0.00662193  0.89461328     0.87200
C258        C  0.35219612  0.04010884  0.53510165     0.87100
C259        C  0.31745904  0.09038993  0.45301483     0.87200
C260        C  0.30564069  0.44310973  0.52263780     0.87300
C261        C  0.36208289  0.04559975  0.57671228     0.79700
N262        N  0.39833905  0.05586960  0.58444813    -0.78600
C263        C  0.41042901  0.05931889  0.62055951     0.82100
N264        N  0.38671813  0.05229568  0.64914279    -0.78600
C265        C  0.35102918  0.04166877  0.64361758     0.82200
N266        N  0.33818804  0.03799488  0.60682963    -0.80300
C267        C  0.42381467  0.14448542  0.99680722     0.79700
N268        N  0.41622878  0.10740686  0.98944966    -0.78600
C269        C  0.38018666  0.09473148  0.98836968     0.82100
N270        N  0.35173019  0.11873519  0.99452766    -0.78600
C271        C  0.35744251  0.15546106  0.00076367     0.82200
N272        N  0.39396476  0.16896733  0.00166835    -0.80300
O273        O  0.05094480  0.96323326  0.84933318    -0.75000
O274        O  0.43602305  0.07075693  0.86519853    -0.75000
O275        O  0.98523424  0.41823097  0.85715097    -0.75100
O276        O  0.49027777  0.12153607  0.87019921    -0.75100
O277        O  0.00118027  0.03542593  0.80337943    -0.75000
O278        O  0.51796721  0.50407674  0.81714764    -0.75000
O279        O  0.44932644  0.06142584  0.80444993    -0.75000
O280        O  0.04075314  0.97050185  0.78788051    -0.75100
Ni281      Ni  0.00181926  0.97489697  0.86296551     1.25400
Ni282      Ni  0.98860185  0.98088153  0.79765163     1.25400
C283        C  0.06295507  0.96532399  0.81566619     0.87200
C284        C  0.42570709  0.06571128  0.83116936     0.87100
C285        C  0.99664594  0.40397748  0.82567994     0.87200
C286        C  0.01133528  0.04961035  0.83538254     0.87300
C287        C  0.01936801  0.09130160  0.84243709     0.79700
N288        N  0.48624979  0.19037313  0.87659616    -0.78600
C289        C  0.03109959  0.13795327  0.88891023     0.82100
N290        N  0.03166755  0.16435572  0.86248759    -0.78600
C291        C  0.02635182  0.15640843  0.82613264     0.82200
N292        N  0.02029112  0.11931672  0.81522738    -0.80300
C293        C  0.15333932  0.99292100  0.84811594     0.79700
N294        N  0.16972548  0.00691271  0.81582395    -0.78600
C295        C  0.15283827  0.99988216  0.78130362     0.82100
N296        N  0.11885899  0.98256097  0.78041084    -0.78600
C297        C  0.10323701  0.96911085  0.81213996     0.82200
N298        N  0.12136673  0.97325373  0.84492801    -0.80300
O299        O  0.18874431  0.00017795  0.90701708    -0.75000
O300        O  0.17338605  0.00583629  0.51963765    -0.75000
O301        O  0.20270921  0.45333104  0.02573758    -0.75100
O302        O  0.15817057  0.05881054  0.46605317    -0.75100
O303        O  0.10050962  0.03583948  0.45734743    -0.75000
O304        O  0.10238109  0.48158971  0.54461081    -0.75000
O305        O  0.11699599  0.98140716  0.50827779    -0.75000
O306        O  0.12894497  0.01843477  0.90382902    -0.75100
Ni307      Ni  0.18337232  0.01135032  0.46549702     1.25400
Ni308      Ni  0.12210463  0.98683689  0.45387262     1.25400
C309        C  0.15893647  0.00646981  0.88754592     0.87200
C310        C  0.14237835  0.99178280  0.53199917     0.87100
C311        C  0.12375298  0.45313658  0.54446468     0.87200
C312        C  0.12233043  0.06345127  0.46337986     0.87300
O313        O  0.02483301  0.96293353  0.60636656    -0.75000
O314        O  0.47499887  0.07103763  0.60577379    -0.75000
O315        O  0.97468371  0.01926311  0.61601990    -0.75100
O316        O  0.01082684  0.40895847  0.63532708    -0.75100
O317        O  0.99218190  0.41851431  0.69449984    -0.75000
O318        O  0.50562309  0.11665812  0.69055828    -0.75000
O319        O  0.45831478  0.06146528  0.66557609    -0.75000
O320        O  0.04071130  0.96973811  0.66668622    -0.75100
Ni321      Ni  0.97367695  0.96445223  0.61958465     1.25400
Ni322      Ni  0.98940089  0.97258503  0.68423798     1.25400
C323        C  0.04957115  0.96692183  0.63155340     0.87200
C324        C  0.44982352  0.06488122  0.63070998     0.87100
C325        C  0.98272892  0.04144850  0.64370237     0.87200
C326        C  0.99951576  0.39593748  0.66713508     0.87300
O327        O  0.44062368  0.16546211  0.58101770    -0.75000
O328        O  0.03618198  0.12686873  0.95386485    -0.75000
O329        O  0.09144414  0.14821642  0.00175153    -0.75100
O330        O  0.48779628  0.13296353  0.98079215    -0.75100
O331        O  0.47737557  0.18811907  0.00853480    -0.75000
O332        O  0.09015334  0.20816696  0.98391443    -0.75000
O333        O  0.52184897  0.22637898  0.95893824    -0.75000
O334        O  0.95055489  0.17944755  0.55280104    -0.75100
Ni335      Ni  0.03765717  0.14357790  0.00417579     1.25400
Ni336      Ni  0.03448758  0.20753576  0.98438088     1.25400
C337        C  0.94842294  0.14399307  0.55958813     0.87200
C338        C  0.03435837  0.15085999  0.92760368     0.87100
C339        C  0.10902670  0.17832535  0.99201052     0.87200
C340        C  0.46476717  0.15643311  0.99560955     0.87300
C341        C  0.98062802  0.08362222  0.63700278     0.79700
N342        N  0.96266616  0.09426566  0.60497559    -0.78600
C343        C  0.95766475  0.13108087  0.59680021     0.82100
N344        N  0.97124382  0.15725251  0.61965661    -0.78600
C345        C  0.99094090  0.14911063  0.65043620     0.82200
N346        N  0.99620564  0.11147420  0.65986103    -0.80300
C347        C  0.13407216  0.98746106  0.57375669     0.79700
N348        N  0.15920430  0.99583739  0.60241805    -0.78600
C349        C  0.14809195  0.99143327  0.63964627     0.82100
N350        N  0.11313411  0.97928266  0.64693756    -0.78600
C351        C  0.08845871  0.97183311  0.61991230     0.82200
N352        N  0.09866896  0.97603214  0.58329944    -0.80300
C353        C  0.14979829  0.17260056  0.98206560     0.79700
N354        N  0.18119082  0.18646240  0.00015963    -0.78600
C355        C  0.21536646  0.16741542  0.99648118     0.82100
N356        N  0.21611340  0.13341161  0.97903776    -0.78600
C357        C  0.18526605  0.12085202  0.96111806     0.82200
N358        N  0.15385706  0.14170144  0.96114763    -0.80300
O359        O  0.93614975  0.36663727  0.57649221    -0.75000
O360        O  0.54622523  0.40595321  0.97146276    -0.75000
O361        O  0.48756591  0.38431625  0.01575823    -0.75100
O362        O  0.09740633  0.37033335  0.97250447    -0.75100
O363        O  0.08832536  0.31189451  0.99287414    -0.75000
O364        O  0.47984666  0.33073231  0.98429978    -0.75000
O365        O  0.02825671  0.30270929  0.94423707    -0.75000
O366        O  0.44794223  0.35091673  0.55876985    -0.75100
Ni367      Ni  0.04453984  0.38238176  0.97291438     1.26600
Ni368      Ni  0.03328259  0.32017380  0.99520515     1.25400
C369        C  0.94084326  0.33190769  0.58435550     0.87200
C370        C  0.03198701  0.32738513  0.91846541     0.87100
C371        C  0.46565230  0.36016803  0.00003341     0.87200
C372        C  0.11098396  0.33840948  0.98272815     0.87300
C373        C  0.98480663  0.35678673  0.66668813     0.79700
N374        N  0.95475187  0.35426067  0.64417389    -0.78600
C375        C  0.94805468  0.32332329  0.62348426     0.82100
N376        N  0.96671303  0.29129542  0.63137601    -0.78600
C377        C  0.99418576  0.29099215  0.65765914     0.82200
N378        N  0.00572263  0.32482288  0.67316681    -0.80300
C379        C  0.15178015  0.33934319  0.99378350     0.79700
N380        N  0.18286992  0.32909509  0.97233882    -0.78600
C381        C  0.21718952  0.34725757  0.97833045     0.82100
N382        N  0.21750403  0.37869197  0.00015973    -0.78600
C383        C  0.18671744  0.38834906  0.02032718     0.82200
N384        N  0.15615261  0.36640547  0.01943788    -0.80300
C385        C  0.00613803  0.36202231  0.82907204     0.79700
N386        N  0.01345822  0.33251889  0.80415245    -0.78600
C387        C  0.02306564  0.29706179  0.81938357     0.82100
N388        N  0.02839237  0.29355267  0.85731014    -0.78600
C389        C  0.02056542  0.32262193  0.88001962     0.82200
N390        N  0.54067235  0.43978382  0.89471896    -0.80300
C391        C  0.33813464  0.02581599  0.85661431     0.79700
N392        N  0.32448968  0.01376029  0.82194991    -0.78600
C393        C  0.34134773  0.02685919  0.78866004     0.82100
N394        N  0.37353602  0.04710541  0.79133649    -0.78600
C395        C  0.38642686  0.05818735  0.82524588     0.82200
N396        N  0.36749558  0.04923630  0.85658024    -0.80300
C397        C  0.42387827  0.36805701  0.00145014     0.79700
N398        N  0.39621732  0.34525483  0.98602573    -0.78600
C399        C  0.35878162  0.35596465  0.98893023     0.82100
N400        N  0.35035585  0.38742056  0.00759511    -0.78600
C401        C  0.37659146  0.40979593  0.02234865     0.82200
N402        N  0.41336916  0.40069120  0.01877519    -0.80300
C403        C  0.02775486  0.26043194  0.79794671     0.02600
C404        C  0.04501949  0.25783209  0.76277534    -0.13600
C405        C  0.05228072  0.22196206  0.74568201     0.00100
C406        C  0.04703781  0.18895568  0.76716077    -0.12100
C407        C  0.02864603  0.19028885  0.80141826     0.02600
C408        C  0.01858420  0.22613886  0.81623766    -0.11500
H409        H  0.05135192  0.28399449  0.74868373     0.08200
H410        H  0.05581956  0.16170697  0.75685458     0.05700
H411        H  0.52443347  0.31480723  0.86497722     0.05500
C412        C  0.01192133  0.25377238  0.66631201     0.02600
C413        C  0.04660407  0.25127263  0.68393074    -0.13600
C414        C  0.05475482  0.21816088  0.70389234     0.00100
C415        C  0.04159576  0.18368373  0.68830915    -0.12100
C416        C  0.00835843  0.18376339  0.66766011     0.02600
C417        C  0.99264245  0.21969878  0.65878794    -0.11500
H418        H  0.06198205  0.27690215  0.68964904     0.08200
H419        H  0.05356290  0.15695208  0.69642465     0.05700
H420        H  0.96558047  0.22117824  0.64508039     0.05500
C421        C  0.32490471  0.84664536  0.52555460     0.02600
C422        C  0.23969571  0.80767213  0.04621392    -0.13600
C423        C  0.20533013  0.78743374  0.04909441     0.00100
C424        C  0.17170385  0.80458722  0.03684804    -0.12100
C425        C  0.25472134  0.84356035  0.52910450     0.02600
C426        C  0.28863539  0.86439738  0.52483448    -0.11500
H427        H  0.26486906  0.79777977  0.05997187     0.08200
H428        H  0.14444250  0.79202623  0.04141817     0.05700
H429        H  0.28648844  0.89406095  0.51836411     0.05500
C430        C  0.32844579  0.69064237  0.50378568     0.02600
C431        C  0.32711447  0.72658289  0.51869480    -0.13600
C432        C  0.20678181  0.74566137  0.04987034     0.00100
C433        C  0.25957684  0.73021439  0.50673827    -0.12100
C434        C  0.25861534  0.69274951  0.49644909     0.02600
C435        C  0.29354027  0.67336917  0.49362312    -0.11500
H436        H  0.26800228  0.74247399  0.04129142     0.08200
H437        H  0.23334354  0.74524711  0.50568037     0.05700
H438        H  0.29330204  0.64397778  0.48555306     0.05500
C439        C  0.32607766  0.51184297  0.31629250     0.02600
C440        C  0.34180348  0.51889204  0.27982835    -0.13600
C441        C  0.31934241  0.51749326  0.24670783     0.00100
C442        C  0.28121860  0.51102687  0.25123989    -0.12100
C443        C  0.26658114  0.49838340  0.28596497     0.02600
C444        C  0.28907015  0.49986737  0.31829909    -0.11500
H445        H  0.37181182  0.52318116  0.27694212     0.08200
H446        H  0.26390738  0.51230962  0.22636226     0.05700
H447        H  0.27903326  0.48910479  0.34494229     0.05500
C448        C  0.16822113  0.48592337  0.32145475     0.02600
C449        C  0.20704553  0.48752841  0.32174909    -0.13600
C450        C  0.22775037  0.48380607  0.28809706     0.00100
C451        C  0.20950723  0.47271927  0.25472298    -0.12100
C452        C  0.17100022  0.47723376  0.25143401     0.02600
C453        C  0.15011034  0.48222440  0.28551857    -0.11500
H454        H  0.22015993  0.49655437  0.34759465     0.08200
H455        H  0.22546390  0.46691381  0.22940670     0.05700
H456        H  0.12000244  0.48615704  0.28361068     0.05500
O457        O  0.31810262  0.51723275  0.47045728    -0.75000
O458        O  0.29949621  0.50152167  0.07988626    -0.75000
O459        O  0.33231109  0.56539103  0.52840932    -0.75100
O460        O  0.29898017  0.94903617  0.96346439    -0.75100
O461        O  0.35787333  0.93250243  0.94923455    -0.75000
O462        O  0.34792260  0.57134304  0.03067393    -0.75000
O463        O  0.35709799  0.52434784  0.08824161    -0.75000
O464        O  0.37404264  0.49170445  0.48160573    -0.75100
Ni465      Ni  0.30701498  0.50121480  0.02451139     1.25400
Ni466      Ni  0.36915935  0.52393345  0.03560220     1.25400
C467        C  0.34972647  0.50393964  0.45807078     0.87200
C468        C  0.32624122  0.51177443  0.10218097     0.87100
C469        C  0.31382376  0.57708156  0.02117354     0.87200
C470        C  0.32325923  0.92410768  0.95470202     0.87300
C471        C  0.32959355  0.49864200  0.14221591     0.79700
N472        N  0.35878138  0.47515961  0.14496266    -0.78600
C473        C  0.37939630  0.47192865  0.17630168     0.82100
N474        N  0.36819259  0.48928214  0.20813967    -0.78600
C475        C  0.33595081  0.50972585  0.20849615     0.82200
N476        N  0.31749719  0.51666718  0.17460344    -0.80300
C477        C  0.42867525  0.65223252  0.51302427     0.79700
N478        N  0.41887923  0.61634605  0.52312468    -0.78600
C479        C  0.38212226  0.60678722  0.52681850     0.82100
N480        N  0.35549701  0.63214313  0.51969180    -0.78600
C481        C  0.36303839  0.66712600  0.50899150     0.82200
N482        N  0.40031515  0.67819948  0.50590721    -0.80300
O483        O  0.03099196  0.55060263  0.38879731    -0.75000
O484        O  0.47100490  0.46722841  0.38717021    -0.75000
O485        O  0.02510528  0.00301140  0.37324874    -0.75100
O486        O  0.53282584  0.50968362  0.37510172    -0.75100
O487        O  0.00422723  0.60294900  0.30487614    -0.75000
O488        O  0.51249580  0.90872363  0.30996496    -0.75000
O489        O  0.45501335  0.47515166  0.32709277    -0.75000
O490        O  0.04838113  0.54313912  0.32879688    -0.75100
Ni491      Ni  0.98023521  0.55559636  0.37394811     1.25400
Ni492      Ni  0.99876507  0.54686019  0.31006236     1.25400
C493        C  0.05586268  0.54337617  0.36400846     0.87200
C494        C  0.44676619  0.47581288  0.36220582     0.87100
C495        C  0.02101485  0.97965170  0.34601759     0.87200
C496        C  0.99663589  0.62352899  0.33393473     0.87300
C497        C  0.00114348  0.66592563  0.33986197     0.79700
N498        N  0.53789731  0.58423740  0.39339508    -0.78600
C499        C  0.01326712  0.70202199  0.39355607     0.82100
N500        N  0.02409000  0.73164784  0.37302676    -0.78600
C501        C  0.02036576  0.73037887  0.33492956     0.82200
N502        N  0.01216119  0.69583726  0.31724841    -0.80300
C503        C  0.13639443  0.51205568  0.42132911     0.79700
N504        N  0.15891203  0.49718697  0.39290836    -0.78600
C505        C  0.14683905  0.49887403  0.35573383     0.82100
N506        N  0.11423973  0.51589037  0.34818778    -0.78600
C507        C  0.09268943  0.53084510  0.37519888     0.82200
N508        N  0.10321147  0.52841550  0.41163971    -0.80300
O509        O  0.17587302  0.49891056  0.47719108    -0.75000
O510        O  0.19275099  0.50193785  0.08519020    -0.75000
O511        O  0.20315099  0.96129161  0.46450119    -0.75100
O512        O  0.16583178  0.55399790  0.03475210    -0.75100
O513        O  0.10685088  0.53402256  0.04244088    -0.75000
O514        O  0.10672712  0.97533151  0.96183252    -0.75000
O515        O  0.13393994  0.48193206  0.09254881    -0.75000
O516        O  0.11999007  0.52584444  0.48533282    -0.75100
Ni517      Ni  0.18652402  0.50452129  0.03003505     1.25400
Ni518      Ni  0.12367100  0.48310195  0.03916436     1.25400
C519        C  0.14509807  0.51179768  0.46315620     0.87200
C520        C  0.16550948  0.49184494  0.10704657     0.87100
C521        C  0.13065476  0.94918034  0.96546406     0.87200
C522        C  0.13055159  0.56068847  0.03892983     0.87300
O523        O  0.07522107  0.55844963  0.14285211    -0.75000
O524        O  0.42677971  0.45798692  0.13493279    -0.75000
O525        O  0.02417990  0.61183239  0.13313465    -0.75100
O526        O  0.98966132  0.00160625  0.11842384    -0.75100
O527        O  0.00400797  0.99638565  0.17902785    -0.75000
O528        O  0.49649855  0.51543998  0.17378214    -0.75000
O529        O  0.44326623  0.46284377  0.19522324    -0.75000
O530        O  0.05565262  0.54539945  0.20114977    -0.75100
Ni531      Ni  0.02704895  0.55883369  0.12195644     1.25400
Ni532      Ni  0.00479565  0.54747876  0.18430722     1.25400
C533        C  0.08194317  0.54950790  0.17693913     0.87200
C534        C  0.41825544  0.46227548  0.16948915     0.87100
C535        C  0.01336812  0.62500342  0.16510758     0.87200
C536        C  0.99682703  0.98070040  0.14713279     0.87300
O537        O  0.45445518  0.61561123  0.02922243    -0.75000
O538        O  0.03492671  0.65812935  0.43496126    -0.75000
O539        O  0.09518978  0.64704823  0.47617006    -0.75100
O540        O  0.49340758  0.63540696  0.52200544    -0.75100
O541        O  0.48346281  0.69078504  0.49473670    -0.75000
O542        O  0.09202093  0.70386578  0.50185028    -0.75000
O543        O  0.53926965  0.67206512  0.44440932    -0.75000
O544        O  0.96273411  0.71619530  0.05601003    -0.75100
Ni545      Ni  0.04331224  0.63553667  0.48143026     1.25400
Ni546      Ni  0.03594837  0.69749903  0.50588768     1.25400
C547        C  0.95783687  0.69183091  0.08189471     0.87200
C548        C  0.02744310  0.69302036  0.43012049     0.87100
C549        C  0.11205594  0.67661812  0.48816569     0.87200
C550        C  0.47038804  0.66049481  0.50977750     0.87300
C551        C  0.00101185  0.66514333  0.16505919     0.79700
N552        N  0.97211553  0.66911999  0.14145500    -0.78600
C553        C  0.96769751  0.70011438  0.12051187     0.82100
N554        N  0.98818336  0.73109818  0.12839334    -0.78600
C555        C  0.01420927  0.73060696  0.15626065     0.82200
N556        N  0.02308438  0.69627691  0.17270594    -0.80300
C557        C  0.16394932  0.50301385  0.14784882     0.79700
N558        N  0.17274514  0.48151810  0.17909926    -0.78600
C559        C  0.15602336  0.49001065  0.21373227     0.82100
N560        N  0.12768335  0.51562981  0.21474671    -0.78600
C561        C  0.11962067  0.53622909  0.18391757     0.82200
N562        N  0.13966906  0.53127847  0.15226945    -0.80300
C563        C  0.15385621  0.66938346  0.49384129     0.79700
N564        N  0.18644112  0.69046064  0.49044179    -0.78600
C565        C  0.22138480  0.67249471  0.49603610     0.82100
N566        N  0.22248839  0.63537981  0.50651848    -0.78600
C567        C  0.18995897  0.61643706  0.51027856     0.82200
N568        N  0.15779300  0.63368689  0.50300839    -0.80300
O569        O  0.95578079  0.90367055  0.03933172    -0.75000
O570        O  0.53155087  0.85485556  0.43036401    -0.75000
O571        O  0.48774378  0.88932633  0.48081804    -0.75100
O572        O  0.09788674  0.87886646  0.51740649    -0.75100
O573        O  0.09057833  0.81992456  0.49762562    -0.75000
O574        O  0.48095929  0.83421783  0.50954938    -0.75000
O575        O  0.03547292  0.84646136  0.45032809    -0.75000
O576        O  0.46380583  0.80428982  0.05536937    -0.75100
Ni577      Ni  0.04449966  0.88803945  0.52086378     1.26600
Ni578      Ni  0.03540163  0.82509327  0.49952381     1.25400
C579        C  0.95912273  0.87901714  0.06467034     0.87200
C580        C  0.03842736  0.88183643  0.44360681     0.87100
C581        C  0.46642261  0.86515184  0.49697239     0.87200
C582        C  0.11234792  0.84734718  0.50696773     0.87300
C583        C  0.99366526  0.93841229  0.14138962     0.79700
N584        N  0.97424499  0.92792797  0.11020809    -0.78600
C585        C  0.96883266  0.89123877  0.10183805     0.82100
N586        N  0.98365081  0.86489929  0.12346230    -0.78600
C587        C  0.00520762  0.87282476  0.15296124     0.82200
N588        N  0.01043723  0.91039756  0.16302108    -0.80300
C589        C  0.15326525  0.84847572  0.49651064     0.79700
N590        N  0.18327528  0.83999665  0.51962586    -0.78600
C591        C  0.21770220  0.85778485  0.51379614     0.82100
N592        N  0.21916952  0.88752892  0.48981520    -0.78600
C593        C  0.18937570  0.89560612  0.46777422     0.82200
N594        N  0.15873958  0.87354835  0.46908932    -0.80300
C595        C  0.02695120  0.93823349  0.35550068     0.79700
N596        N  0.02730433  0.90891792  0.32961344    -0.78600
C597        C  0.03180785  0.87221068  0.34216577     0.82100
N598        N  0.03595266  0.86594849  0.37899554    -0.78600
C599        C  0.03597162  0.89364465  0.40435380     0.82200
N600        N  0.49354282  0.83351468  0.37433226    -0.80300
C601        C  0.36075425  0.50205383  0.41679739     0.79700
N602        N  0.33699849  0.51020300  0.38726344    -0.78600
C603        C  0.35007316  0.50779697  0.35053858     0.82100
N604        N  0.38562342  0.49675974  0.34424402    -0.78600
C605        C  0.40880945  0.48777234  0.37253918     0.82200
N606        N  0.39660701  0.49058490  0.40871503    -0.80300
C607        C  0.42529154  0.87622137  0.50017153     0.79700
N608        N  0.39641127  0.85362526  0.51365735    -0.78600
C609        C  0.35994969  0.86770871  0.51495279     0.82100
N610        N  0.35363317  0.90247869  0.50267585    -0.78600
C611        C  0.38083331  0.92431802  0.48898815     0.82200
N612        N  0.41669351  0.91163191  0.48786094    -0.80300
C613        C  0.03298885  0.83712028  0.31865193     0.02600
C614        C  0.04964358  0.83678638  0.28332936    -0.13600
C615        C  0.05124114  0.80321788  0.26187574     0.00100
C616        C  0.04110950  0.76852998  0.27896916    -0.12100
C617        C  0.02749358  0.76723353  0.31537522     0.02600
C618        C  0.02234568  0.80193339  0.33463839    -0.11500
H619        H  0.06067420  0.86299542  0.27278956     0.08200
H620        H  0.04219492  0.74206062  0.26432100     0.05700
H621        H  0.53271091  0.71087030  0.36446689     0.05500
C622        C  0.02363882  0.83826751  0.16912427     0.02600
C623        C  0.04315810  0.83929091  0.20257502    -0.13600
C624        C  0.05415722  0.80532105  0.22023765     0.00100
C625        C  0.05349081  0.77127193  0.19948593    -0.12100
C626        C  0.03055694  0.76817077  0.16814096     0.02600
C627        C  0.01706086  0.80215471  0.15234360    -0.11500
H628        H  0.04470133  0.86618703  0.21635597     0.08200
H629        H  0.06556808  0.74581099  0.21066389     0.05700
H630        H  0.99976810  0.80004359  0.12750962     0.05500
C631        C  0.24348584  0.83634857  0.01993352     0.02600
C632        C  0.32613462  0.80804124  0.52845119    -0.13600
C633        C  0.29277891  0.78698599  0.53164879     0.00100
C634        C  0.25814512  0.80563591  0.53760183    -0.12100
C635        C  0.17310571  0.83594361  0.01403669     0.02600
C636        C  0.20958212  0.85066312  0.00435753    -0.11500
H637        H  0.35303018  0.79505440  0.52361282     0.08200
H638        H  0.23269768  0.79014001  0.54330591     0.05700
H639        H  0.21174101  0.87330944  0.98418875     0.05500
C640        C  0.24262035  0.69134757  0.02847824     0.02600
C641        C  0.24140097  0.72790435  0.04100727    -0.13600
C642        C  0.29307658  0.74707457  0.51979077     0.00100
C643        C  0.17305413  0.72406961  0.04953691    -0.12100
C644        C  0.17300011  0.68742703  0.03565479     0.02600
C645        C  0.20812357  0.67157619  0.02498889    -0.11500
H646        H  0.35252233  0.73715812  0.53128720     0.08200
H647        H  0.14658854  0.73557969  0.05914108     0.05700
H648        H  0.20862094  0.64315158  0.01404861     0.05500
C649        C  0.33036306  0.50077302  0.81649734     0.02600
C650        C  0.34690219  0.49863798  0.77980526    -0.13600
C651        C  0.32455308  0.49442899  0.74686105     0.00100
C652        C  0.28630784  0.48921724  0.75188366    -0.12100
C653        C  0.26924468  0.49844893  0.78660856     0.02600
C654        C  0.29145504  0.50190671  0.81905281    -0.11500
H655        H  0.37693383  0.50255225  0.77659306     0.08200
H656        H  0.26961913  0.48338865  0.72722560     0.05700
H657        H  0.27922220  0.50924324  0.84587815     0.05500
C658        C  0.17040408  0.51891319  0.82100370     0.02600
C659        C  0.20828730  0.50947520  0.82108822    -0.13600
C660        C  0.22943411  0.51037843  0.78741696     0.00100
C661        C  0.21234137  0.52238389  0.75374686    -0.12100
C662        C  0.17378353  0.52613378  0.75138923     0.02600
C663        C  0.15306090  0.52631224  0.78548088    -0.11500
H664        H  0.22014472  0.49914426  0.84697125     0.08200
H665        H  0.22826543  0.52557794  0.72801258     0.05700
H666        H  0.12286220  0.52965145  0.78378510     0.05500
O667        O  0.31993661  0.50258190  0.96997557    -0.75000
O668        O  0.30022520  0.51964499  0.58072402    -0.75000
O669        O  0.28930876  0.55116326  0.02039451    -0.75100
O670        O  0.33348641  0.96745730  0.47793730    -0.75100
O671        O  0.39237093  0.98665797  0.46748853    -0.75000
O672        O  0.38915689  0.54054911  0.53747959    -0.75000
O673        O  0.35617552  0.49282282  0.58839620    -0.75000
O674        O  0.37772876  0.52306882  0.98210249    -0.75100
Ni675      Ni  0.30647995  0.51942583  0.52520382     1.25400
Ni676      Ni  0.36667637  0.49166902  0.53526137     1.25400
C677        C  0.35263007  0.51359040  0.95810760     0.87200
C678        C  0.32642248  0.50744628  0.60272227     0.87100
C679        C  0.36791640  0.56890424  0.53207726     0.87200
C680        C  0.36892690  0.96125225  0.47694691     0.87300
C681        C  0.33022143  0.51989332  0.64302021     0.79700
N682        N  0.35748643  0.54568873  0.64617204    -0.78600
C683        C  0.37757747  0.55034191  0.67783956     0.82100
N684        N  0.36811289  0.53113383  0.70906529    -0.78600
C685        C  0.33837548  0.50729044  0.70886234     0.82200
N686        N  0.32033717  0.49978372  0.67489603    -0.80300
C687        C  0.34306226  0.66772952  0.99863874     0.79700
N688        N  0.33653691  0.63107837  0.99440560    -0.78600
C689        C  0.30630956  0.61400193  0.00796602     0.82100
N690        N  0.27732990  0.63425862  0.02039806    -0.78600
C691        C  0.27909902  0.67226428  0.01938483     0.82200
N692        N  0.31364154  0.68993301  0.01169256    -0.80300
O693        O  0.02283189  0.47851186  0.88480818    -0.75000
O694        O  0.47157114  0.55821248  0.88707563    -0.75000
O695        O  0.98911750  0.92303739  0.85752646    -0.75100
O696        O  0.51198014  0.62054373  0.86478632    -0.75100
O697        O  0.97979100  0.53520958  0.81541751    -0.75000
O698        O  0.49830112  0.00495294  0.82691393    -0.75000
O699        O  0.45627235  0.54895818  0.82699581    -0.75000
O700        O  0.04092272  0.48904452  0.82556214    -0.75100
Ni701      Ni  0.97345647  0.46926344  0.86811079     1.25400
Ni702      Ni  0.99169124  0.48133730  0.80473948     1.25400
C703        C  0.04798483  0.48736792  0.86108222     0.87200
C704        C  0.44766219  0.54876749  0.86206664     0.87100
C705        C  0.97834458  0.90623391  0.82732288     0.87200
C706        C  0.96799036  0.54667248  0.84801646     0.87300
C707        C  0.96280966  0.58812195  0.85851413     0.79700
N708        N  0.46317286  0.67684958  0.86584169    -0.78600
C709        C  0.96025492  0.63284148  0.90823238     0.82100
N710        N  0.95709302  0.66066621  0.88306026    -0.78600
C711        C  0.95645513  0.65432425  0.84583489     0.82200
N712        N  0.95978905  0.61750785  0.83295732    -0.80300
C713        C  0.13349989  0.49999063  0.92037189     0.79700
N714        N  0.15885766  0.50941513  0.89212345    -0.78600
C715        C  0.14653236  0.51261650  0.85526372     0.82100
N716        N  0.11037991  0.50603399  0.84763510    -0.78600
C717        C  0.08576126  0.49597382  0.87404725     0.82200
N718        N  0.09696236  0.49304160  0.91052355    -0.80300
O719        O  0.17593196  0.50590185  0.97534927    -0.75000
O720        O  0.19163130  0.50668715  0.58690583    -0.75000
O721        O  0.16623941  0.95563375  0.96539223    -0.75100
O722        O  0.20700300  0.55156255  0.52354400    -0.75100
O723        O  0.14964335  0.57421943  0.53476733    -0.75000
O724        O  0.14584640  0.94002893  0.45066874    -0.75000
O725        O  0.13411647  0.53084844  0.59253383    -0.75000
O726        O  0.11761255  0.48541823  0.98482805    -0.75100
Ni727      Ni  0.18583395  0.50221471  0.53176834     1.25400
Ni728      Ni  0.12489127  0.52917899  0.53950059     1.25400
C729        C  0.14342935  0.49684218  0.96201610     0.87200
C730        C  0.16416972  0.51816888  0.60782395     0.87100
C731        C  0.18035045  0.93420764  0.45847066     0.87200
C732        C  0.18372502  0.57889161  0.52471269     0.87300
O733        O  0.06325049  0.46113540  0.64509038    -0.75000
O734        O  0.42402210  0.56973145  0.63770924    -0.75000
O735        O  0.01793228  0.51637757  0.61995038    -0.75100
O736        O  0.97379365  0.91082905  0.62891002    -0.75100
O737        O  0.98815306  0.91761348  0.68941911    -0.75000
O738        O  0.49252946  0.61885790  0.68791029    -0.75000
O739        O  0.44099666  0.56075125  0.69738017    -0.75000
O740        O  0.04535084  0.47489043  0.70374547    -0.75100
Ni741      Ni  0.01512754  0.46196199  0.62505777     1.25400
Ni742      Ni  0.99368152  0.47314879  0.68779339     1.25400
C743        C  0.07104381  0.47018202  0.67881919     0.87200
C744        C  0.41578711  0.56278169  0.67181620     0.87100
C745        C  0.00818328  0.53981796  0.64599506     0.87200
C746        C  0.98198004  0.89613648  0.66098421     0.87300
O747        O  0.54954929  0.66604347  0.56331382    -0.75000
O748        O  0.95588606  0.62026423  0.97419259    -0.75000
O749        O  0.00745543  0.63091307  0.03003524    -0.75100
O750        O  0.40258578  0.64507747  0.98242343    -0.75100
O751        O  0.40457276  0.70236155  0.00714375    -0.75000
O752        O  0.01946196  0.68941819  0.01153410    -0.75000
O753        O  0.46142174  0.71902703  0.95587396    -0.75000
O754        O  0.04233115  0.67511023  0.55343882    -0.75100
Ni755      Ni  0.95343580  0.63705040  0.02542555     1.25400
Ni756      Ni  0.96507739  0.69980855  0.00496239     1.25400
C757        C  0.04581972  0.63972296  0.55882923     0.87200
C758        C  0.96137583  0.64409953  0.94792264     0.87100
C759        C  0.03143211  0.65718588  0.02325966     0.87200
C760        C  0.38518479  0.67415764  0.99522147     0.87300
C761        C  0.01284998  0.58138929  0.63820112     0.79700
N762        N  0.03109115  0.59057024  0.60559417    -0.78600
C763        C  0.03797100  0.62700262  0.59692273     0.82100
N764        N  0.02567220  0.65415519  0.62000419    -0.78600
C765        C  0.00513779  0.64733219  0.65082831     0.82200
N766        N  0.99862129  0.61014910  0.66076469    -0.80300
C767        C  0.15935921  0.50664845  0.64804106     0.79700
N768        N  0.17320866  0.52402420  0.67976205    -0.78600
C769        C  0.15550971  0.51797975  0.71428668     0.82100
N770        N  0.12257355  0.49840193  0.71545207    -0.78600
C771        C  0.10988353  0.48122556  0.68410972     0.82200
N772        N  0.12932228  0.48445859  0.65184572    -0.80300
C773        C  0.07290287  0.64801087  0.02896049     0.79700
N774        N  0.10158600  0.67452545  0.02999527    -0.78600
C775        C  0.13842250  0.66289987  0.03531823     0.82100
N776        N  0.14545681  0.62602475  0.03936550    -0.78600
C777        C  0.11831339  0.60000639  0.03843326     0.82200
N778        N  0.08203041  0.61082239  0.03325208    -0.80300
O779        O  0.04565489  0.86734525  0.56929990    -0.75000
O780        O  0.45683609  0.90846873  0.98272088    -0.75000
O781        O  0.39957196  0.87413402  0.02408593    -0.75100
O782        O  0.00868625  0.88901502  0.98740797    -0.75100
O783        O  0.01345199  0.82885728  0.00357603    -0.75000
O784        O  0.41247769  0.81779342  0.00003996    -0.75000
O785        O  0.95460243  0.81020363  0.95464192    -0.75000
O786        O  0.54379316  0.85276331  0.54977490    -0.75100
Ni787      Ni  0.95463203  0.88847362  0.98913504     1.26600
Ni788      Ni  0.95740004  0.82401842  0.00719306     1.25400
C789        C  0.04023732  0.83251667  0.57637283     0.87200
C790        C  0.95227557  0.83680700  0.93050177     0.87100
C791        C  0.38814434  0.84271943  0.01012596     0.87200
C792        C  0.02947375  0.86044861  0.99487621     0.87300
C793        C  0.99612481  0.85649276  0.65972535     0.79700
N794        N  0.02503016  0.85432021  0.63577518    -0.78600
C795        C  0.03148305  0.82357696  0.61496180     0.82100
N796        N  0.01368009  0.79115255  0.62343733    -0.78600
C797        C  0.98823061  0.79003723  0.65197936     0.82200
N798        N  0.97675980  0.82383806  0.66832430    -0.80300
C799        C  0.07189678  0.86718892  0.99183641     0.79700
N800        N  0.10055461  0.84340011  0.00407637    -0.78600
C801        C  0.13795360  0.85459960  0.99951723     0.82100
N802        N  0.14509535  0.88780186  0.98380311    -0.78600
C803        C  0.11824796  0.91136072  0.97337640     0.82200
N804        N  0.08172264  0.90151354  0.97759828    -0.80300
C805        C  0.96402263  0.86616827  0.83484160     0.79700
N806        N  0.96737398  0.83247174  0.81503126    -0.78600
C807        C  0.96051130  0.79827237  0.83404084     0.82100
N808        N  0.95458013  0.79878035  0.87197416    -0.78600
C809        C  0.95133291  0.83176905  0.89010863     0.82200
N810        N  0.47700851  0.93963713  0.90631266    -0.80300
C811        C  0.36351703  0.51678817  0.91685893     0.79700
N812        N  0.34064727  0.50624813  0.88738843    -0.78600
C813        C  0.35327158  0.50981232  0.85065836     0.82100
N814        N  0.38759907  0.52431182  0.84425491    -0.78600
C815        C  0.41003956  0.53539620  0.87246886     0.82200
N816        N  0.39827908  0.53130913  0.90871906    -0.80300
C817        C  0.34854548  0.84161897  0.99570885     0.79700
N818        N  0.31623202  0.83343985  0.01622087    -0.78600
C819        C  0.28186317  0.84815948  0.00461602     0.82100
N820        N  0.28229769  0.87551948  0.97801662    -0.78600
C821        C  0.31451843  0.88463256  0.95982012     0.82200
N822        N  0.34555813  0.86411554  0.96574667    -0.80300
C823        C  0.95874682  0.75948546  0.81589163     0.02600
C824        C  0.95613465  0.75524255  0.77724055    -0.13600
C825        C  0.95074981  0.71928798  0.76030883     0.00100
C826        C  0.94804882  0.68694587  0.78318641    -0.12100
C827        C  0.95401147  0.68926606  0.82169732     0.02600
C828        C  0.95805928  0.72596780  0.83791949    -0.11500
H829        H  0.95983139  0.78045092  0.76089199     0.08200
H830        H  0.94258240  0.65955421  0.77127681     0.05700
H831        H  0.49760270  0.80948021  0.87981384     0.05500
C832        C  0.97563262  0.75157008  0.66508788     0.02600
C833        C  0.95308165  0.74813251  0.69670996    -0.13600
C834        C  0.95486333  0.71530761  0.71887268     0.00100
C835        C  0.96978443  0.68166716  0.70312158    -0.12100
C836        C  0.98746838  0.68216508  0.66813397     0.02600
C837        C  0.99156638  0.71801654  0.65008143    -0.11500
H838        H  0.93845005  0.77288046  0.70657290     0.08200
H839        H  0.97103697  0.65574639  0.71876131     0.05700
H840        H  0.00823304  0.72020344  0.62465129     0.05500
C841        C  0.73361624  0.34810603  0.52686815     0.02600
C842        C  0.82431262  0.31752613  0.03873017    -0.13600
C843        C  0.79072059  0.29693456  0.04415487     0.00100
C844        C  0.75674014  0.31728587  0.04399749    -0.12100
C845        C  0.66321140  0.34828550  0.52335107     0.02600
C846        C  0.69938100  0.36288559  0.51279031    -0.11500
H847        H  0.85125924  0.30621825  0.04684180     0.08200
H848        H  0.73149961  0.30514382  0.05586393     0.05700
H849        H  0.70114766  0.38529914  0.49233676     0.05500
C850        C  0.73399875  0.20284606  0.53803537     0.02600
C851        C  0.73364209  0.23953623  0.55135486    -0.13600
C852        C  0.78924343  0.25936466  0.02538976     0.00100
C853        C  0.66513845  0.23684548  0.56139828    -0.12100
C854        C  0.66419518  0.20091118  0.54618211     0.02600
C855        C  0.69880106  0.18493731  0.53378600    -0.11500
H856        H  0.84995703  0.25122968  0.02327849     0.08200
H857        H  0.63916154  0.24843569  0.57226465     0.05700
H858        H  0.69828075  0.15739079  0.52082399     0.05500
C859        C  0.81637906  0.03063608  0.30834693     0.02600
C860        C  0.83064442  0.02160008  0.27196691    -0.13600
C861        C  0.81104544  0.03131844  0.23863446     0.00100
C862        C  0.77643421  0.04895679  0.24254362    -0.12100
C863        C  0.76133127  0.05830543  0.27855200     0.02600
C864        C  0.78253670  0.04983822  0.31088358    -0.11500
H865        H  0.85820771  0.00885639  0.26949719     0.08200
H866        H  0.76222046  0.05571602  0.21673132     0.05700
H867        H  0.77361047  0.05877300  0.33851080     0.05500
C868        C  0.66905975  0.04190993  0.31620302     0.02600
C869        C  0.70237502  0.06235093  0.31688036    -0.13600
C870        C  0.72129370  0.07048078  0.28258937     0.00100
C871        C  0.69992135  0.07182033  0.24937431    -0.12100
C872        C  0.66998215  0.04712582  0.24595594     0.02600
C873        C  0.65368789  0.03332993  0.27993539    -0.11500
H874        H  0.71561584  0.06626531  0.34383381     0.08200
H875        H  0.71145257  0.08407870  0.22403338     0.05700
H876        H  0.62996255  0.01444033  0.27784896     0.05500
O877        O  0.81023643  0.01204435  0.46175728    -0.75000
O878        O  0.79742299  0.03336936  0.07334259    -0.75000
O879        O  0.77758754  0.05791933  0.51371642    -0.75100
O880        O  0.83117704  0.46666639  0.96385788    -0.75100
O881        O  0.88993284  0.48512832  0.95166774    -0.75000
O882        O  0.88013726  0.06013395  0.02167346    -0.75000
O883        O  0.85607212  0.01194735  0.07503732    -0.75000
O884        O  0.86676077  0.03618866  0.47330937    -0.75100
Ni885      Ni  0.79918166  0.03141869  0.01718242     1.25400
Ni886      Ni  0.86268644  0.01051529  0.02169939     1.25400
C887        C  0.84189011  0.02509100  0.44968007     0.87200
C888        C  0.82674366  0.02410281  0.09253340     0.87100
C889        C  0.85684266  0.08653155  0.01680713     0.87200
C890        C  0.86653511  0.45961092  0.96045670     0.87300
C891        C  0.83416497  0.03327895  0.13359134     0.79700
N892        N  0.86992424  0.04349039  0.13770307    -0.78600
C893        C  0.88731729  0.04618944  0.17079890     0.82100
N894        N  0.86813019  0.03964137  0.20267367    -0.78600
C895        C  0.83076520  0.03144452  0.20110956     0.82200
N896        N  0.81313261  0.02740391  0.16602533    -0.80300
C897        C  0.83092514  0.17563758  0.49948571     0.79700
N898        N  0.82018862  0.14111135  0.48888687    -0.78600
C899        C  0.79083197  0.12362190  0.50448203     0.82100
N900        N  0.76518712  0.14399099  0.52326051    -0.78600
C901        C  0.76932324  0.18195122  0.52625717     0.82200
N902        N  0.80456901  0.19782574  0.51820839    -0.80300
O903        O  0.54590751  0.96092634  0.39140879    -0.75000
O904        O  0.96479688  0.04820112  0.38151223    -0.75000
O905        O  0.51025753  0.40428992  0.36611405    -0.75100
O906        O  0.00705077  0.10851293  0.36173834    -0.75100
O907        O  0.49858112  0.01941466  0.32965875    -0.75000
O908        O  0.99183412  0.49168280  0.32070164    -0.75000
O909        O  0.95099269  0.03982663  0.32087025    -0.75000
O910        O  0.55753119  0.96938333  0.33018922    -0.75100
Ni911      Ni  0.49405106  0.95404557  0.38213235     1.25400
Ni912      Ni  0.50642166  0.96447422  0.31708739     1.25400
C913        C  0.56815462  0.96912191  0.36443397     0.87200
C914        C  0.94120103  0.04106247  0.35556135     0.87100
C915        C  0.49771539  0.38952894  0.33570099     0.87200
C916        C  0.48994996  0.03167223  0.36323359     0.87300
C917        C  0.48405288  0.07369076  0.37336440     0.79700
N918        N  0.95839457  0.16383251  0.36590370    -0.78600
C919        C  0.46799923  0.12024474  0.41979116     0.82100
N920        N  0.47346011  0.14686531  0.39394040    -0.78600
C921        C  0.48441767  0.13977852  0.35867236     0.82200
N922        N  0.48985573  0.10267858  0.34778152    -0.80300
C923        C  0.64431571  0.01226269  0.41743113     0.79700
N924        N  0.66390695  0.02997648  0.38842260    -0.78600
C925        C  0.65261157  0.02410903  0.35133597     0.82100
N926        N  0.62338261  0.00110567  0.34489213    -0.78600
C927        C  0.60465517  0.98411119  0.37279412     0.82200
N928        N  0.61474360  0.99009885  0.40864235    -0.80300
O929        O  0.68189981  0.02723142  0.47369051    -0.75000
O930        O  0.70045574  0.02027268  0.08069698    -0.75000
O931        O  0.65755534  0.46176609  0.46342045    -0.75100
O932        O  0.71101529  0.06637254  0.01752141    -0.75100
O933        O  0.65331007  0.08590449  0.03228894    -0.75000
O934        O  0.64056824  0.44169920  0.94348620    -0.75000
O935        O  0.64163139  0.04006096  0.08927942    -0.75000
O936        O  0.62462065  0.00308992  0.48097628    -0.75100
Ni937      Ni  0.69332454  0.01537406  0.02611391     1.25400
Ni938      Ni  0.63143488  0.03916312  0.03615890     1.25400
C939        C  0.65106015  0.01544745  0.45923800     0.87200
C940        C  0.67338309  0.02988774  0.10294975     0.87100
C941        C  0.67490197  0.43341568  0.94985618     0.87200
C942        C  0.68636099  0.09250878  0.02025945     0.87300
O943        O  0.58818472  0.95401944  0.13729200    -0.75000
O944        O  0.93884424  0.05466144  0.13441239    -0.75000
O945        O  0.53889021  0.00729039  0.11399444    -0.75100
O946        O  0.47460649  0.40286739  0.12363153    -0.75100
O947        O  0.49288944  0.40345456  0.18322356    -0.75000
O948        O  0.00300259  0.10731429  0.18691288    -0.75000
O949        O  0.95034754  0.05014082  0.19585852    -0.75000
O950        O  0.57128265  0.96435864  0.19699518    -0.75100
Ni951      Ni  0.53815864  0.95268145  0.11988078     1.25400
Ni952      Ni  0.51959061  0.96286384  0.18362357     1.25400
C953        C  0.59641870  0.96196373  0.17135432     0.87200
C954        C  0.92748646  0.05125102  0.16810350     0.87100
C955        C  0.53103450  0.03045703  0.14087624     0.87200
C956        C  0.48320998  0.38468153  0.15371214     0.87300
O957        O  0.03923753  0.16241968  0.05264313    -0.75000
O958        O  0.45282794  0.11516220  0.48660990    -0.75000
O959        O  0.50072076  0.13702388  0.54264371    -0.75100
O960        O  0.88947387  0.14661420  0.48790225    -0.75100
O961        O  0.89518972  0.20611743  0.50577704    -0.75000
O962        O  0.51058532  0.19305225  0.51673033    -0.75000
O963        O  0.95099313  0.21431772  0.45106550    -0.75000
O964        O  0.54092244  0.17357586  0.05015191    -0.75100
Ni965      Ni  0.44626037  0.13917597  0.53511333     1.25400
Ni966      Ni  0.45631330  0.19952219  0.50795228     1.25400
C967        C  0.54704824  0.13797170  0.05140506     0.87200
C968        C  0.45976719  0.13573521  0.45800775     0.87100
C969        C  0.52371651  0.16339617  0.53275240     0.87200
C970        C  0.87388556  0.17790229  0.49768296     0.87300
C971        C  0.53376806  0.07258862  0.13327809     0.79700
N972        N  0.54229012  0.08391912  0.09719369    -0.78600
C973        C  0.54683639  0.12116842  0.08926719     0.82100
N974        N  0.54230801  0.14637609  0.11675288    -0.78600
C975        C  0.53154087  0.13762226  0.15169907     0.82200
N976        N  0.52729281  0.09994364  0.16069102    -0.80300
C977        C  0.67266950  0.01741372  0.14295607     0.79700
N978        N  0.67711758  0.04002593  0.17431681    -0.78600
C979        C  0.66179271  0.02872405  0.20852217     0.82100
N980        N  0.63877543  0.99836482  0.20908598    -0.78600
C981        C  0.63341838  0.97737982  0.17792080     0.82200
N982        N  0.65247193  0.98574393  0.14634023    -0.80300
C983        C  0.56571284  0.15716194  0.53861780     0.79700
N984        N  0.59261647  0.18559960  0.54107151    -0.78600
C985        C  0.63007843  0.17595005  0.54658785     0.82100
N986        N  0.63925613  0.13965232  0.54899807    -0.78600
C987        C  0.61444322  0.11222802  0.54492416     0.82200
N988        N  0.57750037  0.12058861  0.54011698    -0.80300
O989        O  0.53693504  0.35031751  0.06149652    -0.75000
O990        O  0.95061105  0.40392131  0.47730846    -0.75000
O991        O  0.89018035  0.37860021  0.51923536    -0.75100
O992        O  0.49736046  0.39224455  0.48484179    -0.75100
O993        O  0.50576023  0.33550780  0.50952774    -0.75000
O994        O  0.89885733  0.31942466  0.50068903    -0.75000
O995        O  0.45217156  0.30609706  0.46049428    -0.75000
O996        O  0.03841049  0.34270875  0.04379345    -0.75100
Ni997      Ni  0.44321352  0.38751729  0.48595674     1.26600
Ni998      Ni  0.45022666  0.32597381  0.51118935     1.25400
C999        C  0.52596781  0.31606393  0.06195904     0.87200
C1000       C  0.44894670  0.32923074  0.43309556     0.87100
C1001       C  0.87651625  0.34700146  0.50814604     0.87200
C1002       C  0.51985849  0.36679386  0.49707630     0.87300
C1003       C  0.48625462  0.34233632  0.14736893     0.79700
N1004       N  0.48863305  0.33599974  0.11053000    -0.78600
C1005       C  0.50576781  0.30618850  0.09577131     0.82100
N1006       N  0.51399581  0.27672118  0.11781664    -0.78600
C1007       C  0.50467732  0.27790050  0.15508897     0.82200
N1008       N  0.49415242  0.31249003  0.17119806    -0.80300
C1009       C  0.56201826  0.37602668  0.49541716     0.79700
N1010       N  0.59070104  0.35424860  0.51096924    -0.78600
C1011       C  0.62789998  0.36608998  0.50747272     0.82100
N1012       N  0.63483313  0.39802075  0.48913356    -0.78600
C1013       C  0.60819543  0.41981332  0.47465147     0.82200
N1014       N  0.57155203  0.40935077  0.47816334    -0.80300
C1015       C  0.48137429  0.35070198  0.34086034     0.79700
N1016       N  0.49620277  0.31691671  0.32848795    -0.78600
C1017       C  0.48788439  0.28375643  0.34784942     0.82100
N1018       N  0.47005093  0.28615007  0.38194348    -0.78600
C1019       C  0.45611068  0.31965548  0.39373446     0.82200
N1020       N  0.96872161  0.42885397  0.40066828    -0.80300
C1021       C  0.85245824  0.02700638  0.40862683     0.79700
N1022       N  0.82737299  0.02520695  0.37912125    -0.78600
C1023       C  0.84055988  0.02731296  0.34245448     0.82100
N1024       N  0.87759966  0.03160351  0.33629631    -0.78600
C1025       C  0.90200202  0.03441535  0.36480116     0.82200
N1026       N  0.88957996  0.03224886  0.40077911    -0.80300
C1027       C  0.83637330  0.34728969  0.49547815     0.79700
N1028       N  0.80522341  0.34165092  0.51829322    -0.78600
C1029       C  0.77100296  0.35775244  0.50855469     0.82100
N1030       N  0.77062293  0.38370088  0.48056548    -0.78600
C1031       C  0.80170179  0.39016299  0.45954666     0.82200
N1032       N  0.83245201  0.36882951  0.46486977    -0.80300
C1033       C  0.49662592  0.24483888  0.33226956     0.02600
C1034       C  0.50909892  0.24080990  0.29543231    -0.13600
C1035       C  0.50715728  0.20577281  0.27642527     0.00100
C1036       C  0.49943704  0.17267589  0.29706134    -0.12100
C1037       C  0.49162146  0.17461873  0.33545056     0.02600
C1038       C  0.48864391  0.21128716  0.35238483    -0.11500
H1039       H  0.51846458  0.26587989  0.28116895     0.08200
H1040       H  0.49797987  0.14552616  0.28352905     0.05700
H1041       H  0.98750954  0.29786409  0.37579638     0.05500
C1042       C  0.50810083  0.24102930  0.17612866     0.02600
C1043       C  0.50281199  0.23879754  0.21457654    -0.13600
C1044       C  0.51008755  0.20506263  0.23463903     0.00100
C1045       C  0.51916286  0.17152478  0.21462494    -0.12100
C1046       C  0.52123849  0.17171309  0.17535958     0.02600
C1047       C  0.51600990  0.20702998  0.15679219    -0.11500
H1048       H  0.49268332  0.26385572  0.22838464     0.08200
H1049       H  0.52557787  0.14563289  0.22906452     0.05700
H1050       H  0.51794093  0.20821733  0.12646044     0.05500
C1051       C  0.82355944  0.34810148  0.01451113     0.02600
C1052       C  0.73097660  0.31995972  0.55376766    -0.13600
C1053       C  0.69689559  0.29986824  0.55822725     0.00100
C1054       C  0.66266653  0.31680513  0.54641264    -0.12100
C1055       C  0.75321901  0.34625778  0.01803156     0.02600
C1056       C  0.78721638  0.36175057  0.00340499    -0.11500
H1057       H  0.75666297  0.31013494  0.56638608     0.08200
H1058       H  0.63561728  0.30393645  0.55136351     0.05700
H1059       H  0.78527805  0.38397526  0.98274446     0.05500
C1060       C  0.82244814  0.21047129  0.99044771     0.02600
C1061       C  0.82291944  0.24198665  0.01329114    -0.13600
C1062       C  0.69898297  0.25803216  0.56054316     0.00100
C1063       C  0.75424133  0.24319584  0.01492523    -0.12100
C1064       C  0.75240451  0.21139304  0.99228775     0.02600
C1065       C  0.78678770  0.19578699  0.97927141    -0.11500
H1066       H  0.76037611  0.25361659  0.55144952     0.08200
H1067       H  0.72786510  0.25401154  0.02527508     0.05700
H1068       H  0.78585207  0.16946207  0.96389015     0.05500
C1069       C  0.80404740  0.01498548  0.80620901     0.02600
C1070       C  0.81761641  0.02341852  0.76945030    -0.13600
C1071       C  0.79955868  0.00961607  0.73689426     0.00100
C1072       C  0.76741201  0.98787307  0.74165927    -0.12100
C1073       C  0.75267361  0.97961487  0.77794486     0.02600
C1074       C  0.77197958  0.99310639  0.80980630    -0.11500
H1075       H  0.84426192  0.03784922  0.76620944     0.08200
H1076       H  0.75519854  0.97641804  0.71643524     0.05700
H1077       H  0.76346084  0.98543103  0.83789405     0.05500
C1078       C  0.66503433  0.99383828  0.81664522     0.02600
C1079       C  0.69570040  0.96953214  0.81686637    -0.13600
C1080       C  0.71457731  0.96228898  0.78241347     0.00100
C1081       C  0.69262569  0.96166065  0.74954248    -0.12100
C1082       C  0.66452563  0.98857144  0.74647543     0.02600
C1083       C  0.65016496  0.00394432  0.78062558    -0.11500
H1084       H  0.70846217  0.96283319  0.84354007     0.08200
H1085       H  0.70334879  0.94886828  0.72408215     0.05700
H1086       H  0.62826587  0.02495485  0.77891452     0.05500
O1087       O  0.80522288  0.02852161  0.96170345    -0.75000
O1088       O  0.79215646  0.00623331  0.57127790    -0.75000
O1089       O  0.82109689  0.08073209  0.01605473    -0.75100
O1090       O  0.78783608  0.45549045  0.45595372    -0.75100
O1091       O  0.84592387  0.43506179  0.44372122    -0.75000
O1092       O  0.83480554  0.08143816  0.52408315    -0.75000
O1093       O  0.84809370  0.03292752  0.57964004    -0.75000
O1094       O  0.86473636  0.01034655  0.96774989    -0.75100
Ni1095     Ni  0.79915450  0.00842645  0.51604741     1.25400
Ni1096     Ni  0.85955476  0.03538349  0.52697196     1.25400
C1097       C  0.83686491  0.01880827  0.94655287     0.87200
C1098       C  0.81851034  0.01737424  0.59346120     0.87100
C1099       C  0.80024718  0.08569497  0.51559272     0.87200
C1100       C  0.81111898  0.42871633  0.45003000     0.87300
C1101       C  0.82320434  0.00374474  0.63311887     0.79700
N1102       N  0.85648879  0.98691475  0.63706646    -0.78600
C1103       C  0.87328371  0.98194564  0.67035150     0.82100
N1104       N  0.85550367  0.99252480  0.70213241    -0.78600
C1105       C  0.82009329  0.00698697  0.70024508     0.82200
N1106       N  0.80382756  0.01398709  0.66529209    -0.80300
C1107       C  0.92030120  0.16710822  0.99802770     0.79700
N1108       N  0.90822142  0.13191296  0.00736787    -0.78600
C1109       C  0.87103190  0.12374372  0.00924326     0.82100
N1110       N  0.84576204  0.14979671  0.00079073    -0.78600
C1111       C  0.85556355  0.18482797  0.99159931     0.82200
N1112       N  0.89345169  0.19457117  0.99086300    -0.80300
O1113       O  0.53855417  0.06707946  0.89138141    -0.75000
O1114       O  0.95156958  0.98710645  0.87399755    -0.75000
O1115       O  0.53318665  0.51486044  0.87678046    -0.75100
O1116       O  0.01402383  0.02777843  0.86401787    -0.75100
O1117       O  0.50341651  0.11671954  0.80939797    -0.75000
O1118       O  0.00217243  0.42633840  0.79764975    -0.75000
O1119       O  0.93801532  0.99200673  0.81294365    -0.75000
O1120       O  0.55231142  0.06019877  0.83038496    -0.75100
Ni1121     Ni  0.48661387  0.06916997  0.88024197     1.25400
Ni1122     Ni  0.50147757  0.06051674  0.81543236     1.25400
C1123       C  0.56210921  0.06131569  0.86492001     0.87200
C1124       C  0.92860571  0.99447911  0.84780317     0.87100
C1125       C  0.52891101  0.49149999  0.84946617     0.87200
C1126       C  0.49688909  0.13768074  0.83846907     0.87300
C1127       C  0.49628560  0.18081341  0.84143769     0.79700
N1128       N  0.02489386  0.10148667  0.87917213    -0.78600
C1129       C  0.50327452  0.21847241  0.89468748     0.82100
N1130       N  0.51975329  0.24590109  0.87449531    -0.78600
C1131       C  0.52064127  0.24355129  0.83625694     0.82200
N1132       N  0.51329571  0.20848179  0.81950517    -0.80300
C1133       C  0.64262339  0.02562271  0.91769896     0.79700
N1134       N  0.66218963  0.00798360  0.88858602    -0.78600
C1135       C  0.64948593  0.01210689  0.85184823     0.82100
N1136       N  0.61896287  0.03325902  0.84580476    -0.78600
C1137       C  0.59977447  0.04970068  0.87364468     0.82200
N1138       N  0.61116098  0.04548001  0.90942374    -0.80300
O1139       O  0.68279790  0.01157660  0.97215059    -0.75000
O1140       O  0.69535826  0.01727409  0.58265764    -0.75000
O1141       O  0.69971790  0.45874191  0.95549971    -0.75100
O1142       O  0.66586713  0.07075449  0.53617173    -0.75100
O1143       O  0.60791446  0.04698278  0.54074628    -0.75000
O1144       O  0.59958401  0.48351435  0.45385695    -0.75000
O1145       O  0.63680820  0.99579537  0.58854078    -0.75000
O1146       O  0.62633413  0.03678387  0.98196524    -0.75100
Ni1147     Ni  0.69014983  0.02279980  0.52807324     1.25400
Ni1148     Ni  0.62796042  0.99859637  0.53515238     1.25400
C1149       C  0.65152018  0.02384196  0.95910987     0.87200
C1150       C  0.66778443  0.00654454  0.60360942     0.87100
C1151       C  0.62180075  0.45666754  0.46211016     0.87200
C1152       C  0.63000014  0.07479078  0.54066379     0.87300
O1153       O  0.57657168  0.07488998  0.63784916    -0.75000
O1154       O  0.92390483  0.96611118  0.63449450    -0.75000
O1155       O  0.52247018  0.12639963  0.63096551    -0.75100
O1156       O  0.47340917  0.51574649  0.61602893    -0.75100
O1157       O  0.49347453  0.50859183  0.67471460    -0.75000
O1158       O  0.99040868  0.02723142  0.67599681    -0.75000
O1159       O  0.93611426  0.97559407  0.69525381    -0.75000
O1160       O  0.56010529  0.06311278  0.69738696    -0.75100
Ni1161     Ni  0.52678731  0.07327874  0.62015596     1.25400
Ni1162     Ni  0.50855715  0.06202741  0.68380753     1.25400
C1163       C  0.58511909  0.06754571  0.67193156     0.87200
C1164       C  0.91291709  0.97290573  0.66784457     0.87100
C1165       C  0.51256390  0.13942643  0.66329310     0.87200
C1166       C  0.48359868  0.49381050  0.64313633     0.87300
O1167       O  0.94309747  0.12003835  0.53374877    -0.75000
O1168       O  0.52861224  0.17080517  0.93043550    -0.75000
O1169       O  0.59196735  0.15735815  0.96829569    -0.75100
O1170       O  0.98316836  0.14392546  0.00553443    -0.75100
O1171       O  0.97900977  0.20320672  0.98613366    -0.75000
O1172       O  0.58694805  0.21081379  0.00033476    -0.75000
O1173       O  0.03445316  0.18651077  0.93439842    -0.75000
O1174       O  0.45233236  0.22207942  0.55670341    -0.75100
Ni1175     Ni  0.54026299  0.14337903  0.97404387     1.25400
Ni1176     Ni  0.53168493  0.20182668  0.00570669     1.25400
C1177       C  0.44767329  0.20055117  0.58506167     0.87200
C1178       C  0.51941306  0.20565259  0.92981532     0.87100
C1179       C  0.60774914  0.18619377  0.98334730     0.87200
C1180       C  0.96276403  0.17242176  0.99643485     0.87300
C1181       C  0.49875028  0.17903676  0.66402019     0.79700
N1182       N  0.46689874  0.18194736  0.64439136    -0.78600
C1183       C  0.45986351  0.21186918  0.62246337     0.82100
N1184       N  0.48052838  0.24360011  0.62701311    -0.78600
C1185       C  0.50928593  0.24435441  0.65219440     0.82200
N1186       N  0.52074293  0.21069460  0.66820511    -0.80300
C1187       C  0.66533717  0.01840775  0.64371047     0.79700
N1188       N  0.67152195  0.99619385  0.67496658    -0.78600
C1189       C  0.65539712  0.00642106  0.70915081     0.82100
N1190       N  0.63006422  0.03486873  0.70974281    -0.78600
C1191       C  0.62315193  0.05532095  0.67866079     0.82200
N1192       N  0.64286116  0.04847666  0.64714779    -0.80300
C1193       C  0.64966998  0.18075662  0.98891239     0.79700
N1194       N  0.68062591  0.20428462  0.98628087    -0.78600
C1195       C  0.71663380  0.18883584  0.99165233     0.82100
N1196       N  0.72038386  0.15180856  0.00175200    -0.78600
C1197       C  0.68938398  0.13032364  0.00511209     0.82200
N1198       N  0.65587877  0.14513255  0.99764783    -0.80300
O1199       O  0.44269306  0.40864849  0.53476811    -0.75000
O1200       O  0.04125343  0.36123199  0.92569404    -0.75000
O1201       O  0.99017810  0.38996838  0.97431165    -0.75100
O1202       O  0.59506939  0.37040042  0.01836778    -0.75100
O1203       O  0.58920174  0.31520704  0.98927296    -0.75000
O1204       O  0.97880884  0.33258616  0.99631594    -0.75000
O1205       O  0.54123058  0.35069402  0.94211157    -0.75000
O1206       O  0.94701050  0.30736545  0.55875627    -0.75100
Ni1207     Ni  0.54175991  0.37941912  0.01803133     1.26600
Ni1208     Ni  0.53427017  0.32096747  0.98586080     1.25400
C1209       C  0.44675160  0.38692665  0.56269330     0.87200
C1210       C  0.54529453  0.38665200  0.94133463     0.87100
C1211       C  0.96638377  0.36508915  0.98586195     0.87200
C1212       C  0.61019201  0.34142885  0.00293970     0.87300
C1213       C  0.48175783  0.45122263  0.63675427     0.79700
N1214       N  0.46203680  0.43948654  0.60591829    -0.78600
C1215       C  0.45696278  0.40222637  0.59904503     0.82100
N1216       N  0.47262732  0.37702515  0.62153002    -0.78600
C1217       C  0.49512248  0.38608474  0.64987233     0.82200
N1218       N  0.49969335  0.42403375  0.65870200    -0.80300
C1219       C  0.64991781  0.34650646  0.99023070     0.79700
N1220       N  0.68195379  0.33826353  0.01049042    -0.78600
C1221       C  0.71542441  0.35655113  0.00176350     0.82100
N1222       N  0.71458703  0.38571580  0.97720182    -0.78600
C1223       C  0.68272400  0.39448523  0.95871986     0.82200
N1224       N  0.65188550  0.37329682  0.96378518    -0.80300
C1225       C  0.53618774  0.44990907  0.85761835     0.79700
N1226       N  0.53677026  0.42172849  0.83033479    -0.78600
C1227       C  0.54400916  0.38487666  0.84097245     0.82100
N1228       N  0.55056240  0.37762314  0.87690834    -0.78600
C1229       C  0.54797293  0.40331264  0.90391197     0.82200
N1230       N  0.00853312  0.35450230  0.86539979    -0.80300
C1231       C  0.84437134  0.01691547  0.90465030     0.79700
N1232       N  0.81799961  0.02067775  0.87646241    -0.78600
C1233       C  0.82945856  0.01832034  0.83912649     0.82100
N1234       N  0.86567423  0.01104858  0.83102102    -0.78600
C1235       C  0.89090504  0.00582446  0.85818244     0.82200
N1236       N  0.88044338  0.00897348  0.89467189    -0.80300
C1237       C  0.92458645  0.37581551  0.98615980     0.79700
N1238       N  0.89568070  0.35364123  0.00087905    -0.78600
C1239       C  0.85875330  0.36654906  0.99946419     0.82100
N1240       N  0.85208597  0.39989526  0.98392322    -0.78600
C1241       C  0.87903807  0.42191509  0.97028864     0.82200
N1242       N  0.91551010  0.41039141  0.97163021    -0.80300
C1243       C  0.54117927  0.34968987  0.81772107     0.02600
C1244       C  0.55119939  0.34899883  0.78022620    -0.13600
C1245       C  0.54702650  0.31576075  0.75898006     0.00100
C1246       C  0.53745029  0.28124241  0.77721163    -0.12100
C1247       C  0.53098329  0.27978083  0.81575489     0.02600
C1248       C  0.53170153  0.31471507  0.83538839    -0.11500
H1249       H  0.56118052  0.37481884  0.76758569     0.08200
H1250       H  0.53274068  0.25556781  0.76169855     0.05700
H1251       H  0.00495142  0.22740209  0.84351580     0.05500
C1252       C  0.51507893  0.35206119  0.66593561     0.02600
C1253       C  0.53161904  0.35249227  0.70110442    -0.13600
C1254       C  0.54501163  0.31864690  0.71753316     0.00100
C1255       C  0.54606808  0.28522570  0.69619034    -0.12100
C1256       C  0.52500440  0.28223712  0.66360477     0.02600
C1257       C  0.51153087  0.31613432  0.64755204    -0.11500
H1258       H  0.52963105  0.37846816  0.71677207     0.08200
H1259       H  0.55825756  0.25990082  0.70771257     0.05700
H1260       H  0.49612139  0.31385636  0.62149761     0.05500
C1261       C  0.82566350  0.83253118  0.51057060     0.02600
C1262       C  0.74036461  0.79678800  0.03772426    -0.13600
C1263       C  0.70600645  0.77749430  0.04459751     0.00100
C1264       C  0.67216215  0.79836400  0.04904565    -0.12100
C1265       C  0.75615210  0.82925474  0.50179390     0.02600
C1266       C  0.79054460  0.84922952  0.50059825    -0.11500
H1267       H  0.76621515  0.78227684  0.03115198     0.08200
H1268       H  0.64565325  0.78496174  0.05519876     0.05700
H1269       H  0.78965018  0.87869218  0.49299681     0.05500
C1270       C  0.82517488  0.67394039  0.51569144     0.02600
C1271       C  0.82638000  0.71241236  0.52191544    -0.13600
C1272       C  0.70525161  0.73592489  0.04032132     0.00100
C1273       C  0.75855706  0.71330674  0.53219552    -0.12100
C1274       C  0.75536296  0.67664876  0.51932338     0.02600
C1275       C  0.78904654  0.65637195  0.51319642    -0.11500
H1276       H  0.76497394  0.72771503  0.05194543     0.08200
H1277       H  0.73312551  0.72776387  0.54028728     0.05700
H1278       H  0.78678640  0.62733135  0.50430003     0.05500
C1279       C  0.82082492  0.51838523  0.23882899     0.02600
C1280       C  0.84240484  0.52365104  0.20531585    -0.13600
C1281       C  0.82529413  0.52900594  0.16910209     0.00100
C1282       C  0.78628905  0.53194844  0.16800349    -0.12100
C1283       C  0.76449942  0.52628861  0.20092024     0.02600
C1284       C  0.78229737  0.51696866  0.23514437    -0.11500
H1285       H  0.87270691  0.52429984  0.20773178     0.08200
H1286       H  0.77337180  0.53958893  0.14162485     0.05700
H1287       H  0.76635339  0.50993058  0.26008982     0.05500
C1288       C  0.66772080  0.51504072  0.23850728     0.02600
C1289       C  0.70290018  0.53124352  0.23432555    -0.13600
C1290       C  0.72295827  0.52744547  0.20003970     0.00100
C1291       C  0.70379042  0.51736242  0.16693133    -0.12100
C1292       C  0.66638056  0.50662116  0.16854763     0.02600
C1293       C  0.64887559  0.50411661  0.20499295    -0.11500
H1294       H  0.71645838  0.54207884  0.25925905     0.08200
H1295       H  0.71832080  0.51438450  0.14032560     0.05700
H1296       H  0.62097053  0.49228713  0.20762550     0.05500
O1297       O  0.80195360  0.51334628  0.40620754    -0.75000
O1298       O  0.82169723  0.52351476  0.01476017    -0.75000
O1299       O  0.83073043  0.55351801  0.46616396    -0.75100
O1300       O  0.78297336  0.97953628  0.01722427    -0.75100
O1301       O  0.84322777  0.96266609  0.02082369    -0.75000
O1302       O  0.85291461  0.58412318  0.94231187    -0.75000
O1303       O  0.87966549  0.54255305  0.00107039    -0.75000
O1304       O  0.86010427  0.49204052  0.39730128    -0.75100
Ni1305     Ni  0.80992780  0.51584000  0.96098395     1.25400
Ni1306     Ni  0.87246151  0.53538125  0.94668214     1.25400
C1307       C  0.82955434  0.50601838  0.38381011     0.87200
C1308       C  0.85417837  0.53494062  0.02601733     0.87100
C1309       C  0.81910150  0.59253690  0.95082658     0.87200
C1310       C  0.80871858  0.95437492  0.01693274     0.87300
C1311       C  0.86373632  0.53867161  0.06799376     0.79700
N1312       N  0.90031417  0.54640684  0.07738841    -0.78600
C1313       C  0.91078486  0.54895790  0.11421073     0.82100
N1314       N  0.88528487  0.54346737  0.14143859    -0.78600
C1315       C  0.84927318  0.53546871  0.13433512     0.82200
N1316       N  0.83790235  0.53295746  0.09702566    -0.80300
C1317       C  0.92578713  0.64165606  0.49593121     0.79700
N1318       N  0.91684409  0.60670170  0.48147175    -0.78600
C1319       C  0.88017990  0.59577060  0.47813008     0.82100
N1320       N  0.85312571  0.61883189  0.48995021    -0.78600
C1321       C  0.85989186  0.65264082  0.50475509     0.82200
N1322       N  0.89673537  0.66491769  0.50764758    -0.80300
O1323       O  0.57053326  0.44666885  0.35375104    -0.75000
O1324       O  0.93146406  0.56021354  0.35572069    -0.75000
O1325       O  0.50217855  0.90230879  0.37113212    -0.75100
O1326       O  0.98663516  0.60710434  0.36454587    -0.75100
O1327       O  0.51681704  0.51967575  0.31559052    -0.75000
O1328       O  0.01131212  0.99223880  0.31326087    -0.75000
O1329       O  0.94751592  0.55098414  0.29561560    -0.75000
O1330       O  0.55471356  0.45569979  0.29374091    -0.75100
Ni1331     Ni  0.52176767  0.45648162  0.37239999     1.25400
Ni1332     Ni  0.50421488  0.46535510  0.30842337     1.25400
C1333       C  0.57942414  0.45026547  0.31900546     0.87200
C1334       C  0.92282237  0.55653185  0.32111734     0.87100
C1335       C  0.50784388  0.88702303  0.33876345     0.87200
C1336       C  0.52831441  0.53268192  0.34763988     0.87300
C1337       C  0.53552845  0.57433034  0.35601766     0.79700
N1338       N  0.99892079  0.67228688  0.37666308    -0.78600
C1339       C  0.54425236  0.62064218  0.40346326     0.82100
N1340       N  0.54868650  0.64648716  0.37703765    -0.78600
C1341       C  0.54559725  0.63935183  0.34051318     0.82200
N1342       N  0.53876914  0.60257485  0.32900197    -0.80300
C1343       C  0.66156929  0.49531387  0.34382823     0.79700
N1344       N  0.67011330  0.51425278  0.31086790    -0.78600
C1345       C  0.65478798  0.50194365  0.27705552     0.82100
N1346       N  0.62748497  0.47530042  0.27821001    -0.78600
C1347       C  0.61854684  0.45795937  0.31090871     0.82200
N1348       N  0.63824609  0.46585028  0.34204547    -0.80300
O1349       O  0.68834408  0.50355364  0.40616558    -0.75000
O1350       O  0.67500542  0.50330164  0.01365130    -0.75000
O1351       O  0.70802145  0.97185332  0.51970975    -0.75100
O1352       O  0.66507525  0.55978532  0.96294959    -0.75100
O1353       O  0.60565849  0.54201086  0.95373013    -0.75000
O1354       O  0.61134062  0.99028625  0.04005145    -0.75000
O1355       O  0.61654152  0.48438152  0.00234917    -0.75000
O1356       O  0.63037913  0.52428837  0.39529575    -0.75100
Ni1357     Ni  0.68476586  0.51011980  0.95935388     1.25400
Ni1358     Ni  0.62154017  0.49094025  0.94818813     1.25400
C1359       C  0.66183461  0.51125129  0.38286314     0.87200
C1360       C  0.64285885  0.49183989  0.02604795     0.87100
C1361       C  0.63366404  0.96259558  0.03876124     0.87200
C1362       C  0.62984402  0.56734917  0.96128940     0.87300
O1363       O  0.52653206  0.45403485  0.10078748    -0.75000
O1364       O  0.97653052  0.55856476  0.10388037    -0.75000
O1365       O  0.47762961  0.51028053  0.11448959    -0.75100
O1366       O  0.53668888  0.89940233  0.13050333    -0.75100
O1367       O  0.51904724  0.90821907  0.19004518    -0.75000
O1368       O  0.00414021  0.60226025  0.19176370    -0.75000
O1369       O  0.95578395  0.54948923  0.16248733    -0.75000
O1370       O  0.54506156  0.45680407  0.16063833    -0.75100
Ni1371     Ni  0.47575928  0.45597101  0.11669078     1.25400
Ni1372     Ni  0.49520766  0.45961336  0.18061066     1.25400
C1373       C  0.55236421  0.45666209  0.12516726     0.87200
C1374       C  0.94965250  0.55308931  0.12703275     0.87100
C1375       C  0.48754055  0.53125501  0.14223320     0.87200
C1376       C  0.52648994  0.88589646  0.16251389     0.87300
O1377       O  0.95123609  0.65727368  0.07434742    -0.75000
O1378       O  0.54619237  0.61539035  0.47038248    -0.75000
O1379       O  0.60061025  0.64775890  0.51297837    -0.75100
O1380       O  0.99042774  0.62701143  0.48641026    -0.75100
O1381       O  0.98063815  0.68502539  0.50765062    -0.75000
O1382       O  0.59292074  0.70482646  0.48833378    -0.75000
O1383       O  0.02922341  0.71686136  0.45664396    -0.75000
O1384       O  0.45922717  0.67332208  0.05347690    -0.75100
Ni1385     Ni  0.54768456  0.63944339  0.51823808     1.25400
Ni1386     Ni  0.53795827  0.69974445  0.49060261     1.25400
C1387       C  0.45795446  0.63732531  0.05736064     0.87200
C1388       C  0.54291196  0.63608452  0.44150389     0.87100
C1389       C  0.61463745  0.67793343  0.49904516     0.87200
C1390       C  0.96742714  0.65242133  0.49730917     0.87300
C1391       C  0.48659662  0.57382592  0.13547899     0.79700
N1392       N  0.46995445  0.58517547  0.10263350    -0.78600
C1393       C  0.46625820  0.62231908  0.09447514     0.82100
N1394       N  0.48012134  0.64776056  0.11791242    -0.78600
C1395       C  0.49944375  0.63901946  0.14862002     0.82200
N1396       N  0.50276077  0.60122348  0.15849078    -0.80300
C1397       C  0.63435733  0.48646177  0.06774030     0.79700
N1398       N  0.65750045  0.49837240  0.09678779    -0.78600
C1399       C  0.64633372  0.49302057  0.13390255     0.82100
N1400       N  0.61355019  0.47598815  0.14076379    -0.78600
C1401       C  0.59055675  0.46497748  0.11334144     0.82200
N1402       N  0.60046783  0.47068738  0.07680551    -0.80300
C1403       C  0.65447451  0.67501077  0.48673169     0.79700
N1404       N  0.68501421  0.68289804  0.50901761    -0.78600
C1405       C  0.71842565  0.66363710  0.50338923     0.82100
N1406       N  0.71856369  0.63324971  0.48007630    -0.78600
C1407       C  0.68795856  0.62527794  0.45901300     0.82200
N1408       N  0.65802555  0.64828859  0.46037864    -0.80300
O1409       O  0.44911375  0.86069796  0.07883708    -0.75000
O1410       O  0.04314092  0.90554556  0.47007951    -0.75000
O1411       O  0.98995456  0.89276853  0.52355605    -0.75100
O1412       O  0.59332152  0.87299351  0.46901400    -0.75100
O1413       O  0.59180748  0.81893347  0.50025153    -0.75000
O1414       O  0.98059235  0.83429960  0.50339850    -0.75000
O1415       O  0.52756090  0.79897599  0.45850055    -0.75000
O1416       O  0.95933995  0.84356221  0.05725054    -0.75100
Ni1417     Ni  0.54073924  0.88292450  0.47412397     1.26600
Ni1418     Ni  0.53606090  0.82402039  0.50558660     1.25400
C1419       C  0.45794927  0.82605784  0.08332408     0.87200
C1420       C  0.52448527  0.81956027  0.42934173     0.87100
C1421       C  0.96706801  0.86620449  0.51446648     0.87200
C1422       C  0.61095737  0.84551328  0.48441150     0.87300
C1423       C  0.51126077  0.84692882  0.16192149     0.79700
N1424       N  0.48004660  0.84580340  0.14120038    -0.78600
C1425       C  0.47092429  0.81564959  0.12051092     0.82100
N1426       N  0.48949112  0.78284584  0.12599476    -0.78600
C1427       C  0.51786037  0.78086365  0.15152002     0.82200
N1428       N  0.53108814  0.81404848  0.16729916    -0.80300
C1429       C  0.65220002  0.85418731  0.49099496     0.79700
N1430       N  0.68429383  0.83213867  0.49216468    -0.78600
C1431       C  0.71903172  0.84960860  0.49922277     0.82100
N1432       N  0.72019000  0.88721094  0.50745476    -0.78600
C1433       C  0.68832567  0.90745532  0.50684985     0.82200
N1434       N  0.65608048  0.89072710  0.49776559    -0.80300
C1435       C  0.50636990  0.84388138  0.34032050     0.79700
N1436       N  0.52488169  0.81664078  0.31905215    -0.78600
C1437       C  0.53138120  0.78150716  0.33582730     0.82100
N1438       N  0.52873031  0.77902871  0.37402819    -0.78600
C1439       C  0.51043999  0.80599202  0.39341478     0.82200
N1440       N  0.03144310  0.92981293  0.39287167    -0.80300
C1441       C  0.83330852  0.52336605  0.34535219     0.79700
N1442       N  0.81942932  0.51086905  0.31112839    -0.78600
C1443       C  0.83741512  0.52199599  0.27782159     0.82100
N1444       N  0.87080749  0.54022642  0.28012323    -0.78600
C1445       C  0.88348008  0.55205020  0.31378604     0.82200
N1446       N  0.86326791  0.54574335  0.34491598    -0.80300
C1447       C  0.92491980  0.87431600  0.51636095     0.79700
N1448       N  0.89723602  0.84687160  0.51297321    -0.78600
C1449       C  0.85966494  0.85720136  0.51460859     0.82100
N1450       N  0.85105435  0.89329329  0.51972674    -0.78600
C1451       C  0.87674595  0.92023686  0.52254072     0.82200
N1452       N  0.91396036  0.91115629  0.52087587    -0.80300
C1453       C  0.54104054  0.74503885  0.31532327     0.02600
C1454       C  0.54698639  0.74308790  0.27670324    -0.13600
C1455       C  0.55405445  0.70794518  0.25834432     0.00100
C1456       C  0.55644678  0.67453060  0.27960851    -0.12100
C1457       C  0.54680476  0.67464796  0.31724135     0.02600
C1458       C  0.53996683  0.71026025  0.33490738    -0.11500
H1459       H  0.54339031  0.76891626  0.26128899     0.08200
H1460       H  0.56429482  0.64801384  0.26691345     0.05700
H1461       H  0.01062260  0.80147033  0.36281139     0.05500
C1462       C  0.53119269  0.74228281  0.16339590     0.02600
C1463       C  0.55275167  0.73841925  0.19554453    -0.13600
C1464       C  0.55067988  0.70511762  0.21693449     0.00100
C1465       C  0.53556393  0.67186322  0.20071534    -0.12100
C1466       C  0.51853887  0.67297102  0.16579524     0.02600
C1467       C  0.51568347  0.70904745  0.14775905    -0.11500
H1468       H  0.56653111  0.76312294  0.20658018     0.08200
H1469       H  0.53324567  0.64583319  0.21609494     0.05700
H1470       H  0.49981980  0.71194156  0.12204684     0.05500
C1471       C  0.74186271  0.83550941  0.03584225     0.02600
C1472       C  0.82549349  0.79532252  0.52223118    -0.13600
C1473       C  0.79196945  0.77392380  0.52101148     0.00100
C1474       C  0.75780491  0.79124523  0.50973899    -0.12100
C1475       C  0.67228245  0.83720996  0.04445876     0.02600
C1476       C  0.70764139  0.85525516  0.03905536    -0.11500
H1477       H  0.85136321  0.78385850  0.53303547     0.08200
H1478       H  0.73187242  0.77589049  0.50708506     0.05700
H1479       H  0.70859817  0.88542902  0.03579067     0.05500
C1480       C  0.74334649  0.68304537  0.01930114     0.02600
C1481       C  0.73972576  0.71595351  0.03988248    -0.13600
C1482       C  0.79282643  0.73283372  0.52793209     0.00100
C1483       C  0.67188190  0.71768391  0.02850186    -0.12100
C1484       C  0.67335166  0.68189232  0.01289478     0.02600
C1485       C  0.70966113  0.66535189  0.00734598    -0.11500
H1486       H  0.85314274  0.72614274  0.51827658     0.08200
H1487       H  0.64501616  0.73163089  0.02862313     0.05700
H1488       H  0.71202982  0.63893039  0.99242446     0.05500
C1489       C  0.81042624  0.50132203  0.73906834     0.02600
C1490       C  0.83153246  0.49973470  0.70514540    -0.13600
C1491       C  0.81464146  0.49105183  0.66965919     0.00100
C1492       C  0.77671007  0.48257787  0.66913022    -0.12100
C1493       C  0.75483152  0.48621423  0.70202461     0.02600
C1494       C  0.77199050  0.49671564  0.73644365    -0.11500
H1495       H  0.86167722  0.50353261  0.70684486     0.08200
H1496       H  0.76471448  0.47257291  0.64310884     0.05700
H1497       H  0.75604832  0.50049724  0.76206492     0.05500
C1498       C  0.66228010  0.50570290  0.73864595     0.02600
C1499       C  0.69313501  0.48251726  0.73382924    -0.13600
C1500       C  0.71354975  0.48433938  0.69988318     0.00100
C1501       C  0.69576547  0.49675976  0.66674541    -0.12100
C1502       C  0.66120063  0.51441534  0.66889223     0.02600
C1503       C  0.64532359  0.52041921  0.70559430    -0.11500
H1504       H  0.70522152  0.46938446  0.75839596     0.08200
H1505       H  0.71001345  0.49706259  0.63989873     0.05700
H1506       H  0.62042645  0.53764751  0.70873641     0.05500
O1507       O  0.80134450  0.50856399  0.90669414    -0.75000
O1508       O  0.81481104  0.49689083  0.51520810    -0.75000
O1509       O  0.79437138  0.56726313  0.95757134    -0.75100
O1510       O  0.82562444  0.96165782  0.51811637    -0.75100
O1511       O  0.88203590  0.98683081  0.52881676    -0.75000
O1512       O  0.88892624  0.53183722  0.45744457    -0.75000
O1513       O  0.87213563  0.47431908  0.50431534    -0.75000
O1514       O  0.86004610  0.52639505  0.89432110    -0.75100
Ni1515     Ni  0.80666381  0.50565190  0.46097922     1.25400
Ni1516     Ni  0.86857836  0.48240906  0.45010830     1.25400
C1517       C  0.82807505  0.51375150  0.88276456     0.87200
C1518       C  0.84601546  0.48359297  0.52788550     0.87100
C1519       C  0.86659698  0.55861081  0.46581755     0.87200
C1520       C  0.86127135  0.95827110  0.52346258     0.87300
C1521       C  0.85411528  0.48013890  0.56988117     0.79700
N1522       N  0.89043745  0.47267720  0.58008583    -0.78600
C1523       C  0.90017874  0.47098486  0.61705302     0.82100
N1524       N  0.87437882  0.47685361  0.64358661    -0.78600
C1525       C  0.83868725  0.48474074  0.63557672     0.82200
N1526       N  0.82775042  0.48646280  0.59817257    -0.80300
C1527       C  0.84766908  0.67691201  0.99423307     0.79700
N1528       N  0.84466103  0.65091646  0.96706861    -0.78600
C1529       C  0.81284837  0.63141275  0.96123151     0.82100
N1530       N  0.78122481  0.64127473  0.97977853    -0.78600
C1531       C  0.78129325  0.67027932  0.00462976     0.82200
N1532       N  0.81551816  0.68678026  0.01403597    -0.80300
O1533       O  0.57198781  0.57726387  0.85516607    -0.75000
O1534       O  0.92583982  0.45994750  0.84956729    -0.75000
O1535       O  0.48348895  0.01521033  0.88681750    -0.75100
O1536       O  0.96229282  0.52227497  0.87411004    -0.75100
O1537       O  0.49557749  0.61272199  0.80498650    -0.75000
O1538       O  0.97653935  0.92553941  0.79653865    -0.75000
O1539       O  0.94056463  0.47292501  0.78990895    -0.75000
O1540       O  0.55662603  0.56746989  0.79511080    -0.75100
Ni1541     Ni  0.52270195  0.56826862  0.87288456     1.25400
Ni1542     Ni  0.50593520  0.55811972  0.80883674     1.25400
C1543       C  0.58109473  0.57361003  0.82051004     0.87200
C1544       C  0.91652866  0.46428913  0.81536405     0.87100
C1545       C  0.49007299  0.99173949  0.86015639     0.87200
C1546       C  0.50076423  0.63460022  0.83348060     0.87300
C1547       C  0.48626291  0.67430381  0.83625637     0.79700
N1548       N  0.96265503  0.59657600  0.89615110    -0.78600
C1549       C  0.46318998  0.70668392  0.88902178     0.82100
N1550       N  0.48048918  0.73882436  0.87821849    -0.78600
C1551       C  0.49849057  0.74024234  0.84428485     0.82200
N1552       N  0.50454842  0.70668381  0.82475988    -0.80300
C1553       C  0.66201630  0.52663376  0.84365720     0.79700
N1554       N  0.66820384  0.50724745  0.81047482    -0.78600
C1555       C  0.65286551  0.52071331  0.77725664     0.82100
N1556       N  0.62795241  0.54940378  0.77913667    -0.78600
C1557       C  0.62020216  0.56650694  0.81217958     0.82200
N1558       N  0.64009357  0.55732454  0.84286107    -0.80300
O1559       O  0.69040179  0.51605565  0.90473673    -0.75000
O1560       O  0.67080002  0.51700745  0.51479034    -0.75000
O1561       O  0.66944801  0.96723658  0.03412504    -0.75100
O1562       O  0.70075630  0.55962073  0.45783162    -0.75100
O1563       O  0.64341453  0.58046645  0.44350969    -0.75000
O1564       O  0.64938854  0.95197916  0.52961206    -0.75000
O1565       O  0.61435065  0.54061938  0.50226058    -0.75000
O1566       O  0.63107974  0.49856837  0.89529024    -0.75100
Ni1567     Ni  0.68146888  0.50959801  0.46072973     1.25400
Ni1568     Ni  0.62007708  0.53311126  0.44811088     1.25400
C1569       C  0.66275718  0.51018017  0.88223303     0.87200
C1570       C  0.63942990  0.53104812  0.52655023     0.87100
C1571       C  0.68328149  0.94563000  0.52028659     0.87200
C1572       C  0.67803876  0.58651592  0.45098105     0.87300
O1573       O  0.52358370  0.57163469  0.60279364    -0.75000
O1574       O  0.96523357  0.46298698  0.60715605    -0.75000
O1575       O  0.47407608  0.62441091  0.62846541    -0.75100
O1576       O  0.53049956  0.01877633  0.61400640    -0.75100
O1577       O  0.51289327  0.00770984  0.67307294    -0.75000
O1578       O  0.99598946  0.52727790  0.67767884    -0.75000
O1579       O  0.94452926  0.47139310  0.66597094    -0.75000
O1580       O  0.54273868  0.56629076  0.66225851    -0.75100
Ni1581     Ni  0.47300221  0.57077122  0.61940573     1.25400
Ni1582     Ni  0.49306671  0.56362531  0.68288773     1.25400
C1583       C  0.54966399  0.56780978  0.62668762     0.87200
C1584       C  0.93853038  0.46774943  0.63041473     0.87100
C1585       C  0.48495202  0.63981287  0.65948869     0.87200
C1586       C  0.52320688  0.99512830  0.64055358     0.87300
O1587       O  0.05013681  0.61681861  0.53145180    -0.75000
O1588       O  0.45545162  0.66071241  0.93362533    -0.75000
O1589       O  0.50888186  0.63345208  0.97954843    -0.75100
O1590       O  0.90060838  0.64724634  0.02028219    -0.75100
O1591       O  0.91004242  0.70581677  0.00036392    -0.75000
O1592       O  0.51620474  0.69063020  0.00380123    -0.75000
O1593       O  0.96669219  0.67907989  0.95526158    -0.75000
O1594       O  0.53700138  0.72268203  0.53963928    -0.75100
Ni1595     Ni  0.45504972  0.63706587  0.98034249     1.25400
Ni1596     Ni  0.46057246  0.69864761  0.00612431     1.25400
C1597       C  0.54183894  0.70088657  0.56770748     0.87200
C1598       C  0.45859604  0.69605831  0.92829838     0.87100
C1599       C  0.53077014  0.65957080  0.99132316     0.87200
C1600       C  0.88735762  0.67857330  0.00826779     0.87300
C1601       C  0.50058506  0.67885482  0.65519988     0.79700
N1602       N  0.52321698  0.67937573  0.62564316    -0.78600
C1603       C  0.53139500  0.71026577  0.60610799     0.82100
N1604       N  0.51994758  0.74426976  0.61908964    -0.78600
C1605       C  0.50131173  0.74627799  0.65290827     0.82200
N1606       N  0.48917716  0.71294070  0.67010857    -0.80300
C1607       C  0.63068185  0.53677692  0.56823958     0.79700
N1608       N  0.65335039  0.52395917  0.59723567    -0.78600
C1609       C  0.64265960  0.53003965  0.63435762     0.82100
N1610       N  0.61071733  0.54843934  0.64132475    -0.78600
C1611       C  0.58772909  0.55971921  0.61411654     0.82200
N1612       N  0.59722099  0.55356601  0.57743684    -0.80300
C1613       C  0.57270977  0.65086502  0.98937120     0.79700
N1614       N  0.60151103  0.67389752  0.00228984    -0.78600
C1615       C  0.63859712  0.66181849  0.99912561     0.82100
N1616       N  0.64548131  0.62811691  0.98368023    -0.78600
C1617       C  0.61826503  0.60538446  0.97155840     0.82200
N1618       N  0.58191112  0.61643284  0.97466135    -0.80300
O1619       O  0.54857315  0.90832376  0.52116312    -0.75000
O1620       O  0.95282369  0.87118693  0.94031598    -0.75000
O1621       O  0.90175898  0.88327131  0.99207188    -0.75100
O1622       O  0.50626527  0.89296046  0.03906548    -0.75100
O1623       O  0.52024515  0.83676549  0.01527435    -0.75000
O1624       O  0.90144372  0.82356532  0.01025539    -0.75000
O1625       O  0.46967585  0.85179967  0.95919797    -0.75000
O1626       O  0.03587364  0.80829389  0.55028113    -0.75100
Ni1627     Ni  0.45225407  0.88591125  0.03207654     1.26600
Ni1628     Ni  0.46675807  0.82570021  0.00636429     1.25400
C1629       C  0.54689960  0.88874453  0.55113138     0.87200
C1630       C  0.46610600  0.88761148  0.95488503     0.87100
C1631       C  0.88328210  0.85383942  0.00212683     0.87200
C1632       C  0.53110217  0.86804138  0.03002799     0.87300
C1633       C  0.52736842  0.95313369  0.63247510     0.79700
N1634       N  0.53837559  0.94238134  0.59686103    -0.78600
C1635       C  0.54408061  0.90526951  0.58881139     0.82100
N1636       N  0.53783904  0.87956760  0.61537163    -0.78600
C1637       C  0.52444771  0.88779100  0.64936415     0.82200
N1638       N  0.51940294  0.92528360  0.65885180    -0.80300
C1639       C  0.57247962  0.87718302  0.03587017     0.79700
N1640       N  0.60056952  0.85009054  0.03876323    -0.78600
C1641       C  0.63740379  0.86126881  0.04468075     0.82100
N1642       N  0.64490339  0.89799899  0.04677393    -0.78600
C1643       C  0.61905513  0.92445101  0.04234389     0.82200
N1644       N  0.58247103  0.91443794  0.03723810    -0.80300
C1645       C  0.48767604  0.94946924  0.87009198     0.79700
N1646       N  0.49640768  0.92073290  0.84495273    -0.78600
C1647       C  0.49423267  0.88344649  0.85636450     0.82100
N1648       N  0.48329752  0.87597890  0.89156961    -0.78600
C1649       C  0.47456259  0.90254924  0.91671274     0.82200
N1650       N  0.95413618  0.86382742  0.87091796    -0.80300
C1651       C  0.82846709  0.49572337  0.84430768     0.79700
N1652       N  0.81291836  0.50887210  0.81115600    -0.78600
C1653       C  0.82896202  0.49789460  0.77689551     0.82100
N1654       N  0.86241170  0.47960399  0.77702122    -0.78600
C1655       C  0.87660678  0.46683420  0.80957210     0.82200
N1656       N  0.85756144  0.47221078  0.84176890    -0.80300
C1657       C  0.84132903  0.86091071  0.00529635     0.79700
N1658       N  0.81232892  0.83904686  0.01927507    -0.78600
C1659       C  0.77754350  0.85623652  0.02635391     0.82100
N1660       N  0.77452210  0.89444973  0.02422046    -0.78600
C1661       C  0.80302077  0.91469935  0.01016454     0.82200
N1662       N  0.83420770  0.89716923  0.99897179    -0.80300
C1663       C  0.50278015  0.84893638  0.83298982     0.02600
C1664       C  0.50588684  0.85094760  0.79406769    -0.13600
C1665       C  0.51127739  0.81801897  0.77238833     0.00100
C1666       C  0.51593380  0.78290768  0.79057210    -0.12100
C1667       C  0.50828306  0.77877011  0.82867557     0.02600
C1668       C  0.50298712  0.81226947  0.84996531    -0.11500
H1669       H  0.50153784  0.87798163  0.78097889     0.08200
H1670       H  0.52263494  0.75778768  0.77474969     0.05700
H1671       H  0.96131832  0.72849138  0.86805173     0.05500
C1672       C  0.51323447  0.85352117  0.67169624     0.02600
C1673       C  0.51543194  0.85285876  0.71072101    -0.13600
C1674       C  0.50804441  0.81929311  0.73077659     0.00100
C1675       C  0.49756850  0.78631616  0.71099821    -0.12100
C1676       C  0.49925284  0.78443143  0.67203875     0.02600
C1677       C  0.50611130  0.81859576  0.65253435    -0.11500
H1678       H  0.52476219  0.87808711  0.72485610     0.08200
H1679       H  0.48969041  0.76093733  0.72572707     0.05700
H1680       H  0.50702785  0.81759044  0.62210787     0.05500
loop_ 
_geom_bond_atom_site_label_1 
_geom_bond_atom_site_label_2 
_geom_bond_distance 
_geom_bond_site_symmetry_2 
_ccdc_geom_bond_type 
C1            C6   1.421       .  A
C1          C212   1.378       .  A
C1          C189   1.516       .  S
C2            C3   1.408       .  A
C2          C211   1.381       .  A
C2            H7   1.078       .  S
C3            C4   1.416       .  A
C3           C12   1.481       .  S
C4          C215   1.387       .  A
C4            H8   1.081       .  S
C5            C6   1.437       .  A
C5          C214   1.383       .  A
C5          C171   1.512       .  S
C6            H9   1.081       .  S
C10          C11   1.384       .  A
C10          C15   1.427       .  A
C10          C61   1.524       .  S
C11         C222   1.415       .  A
C11         H226   1.081       .  S
C12         C221   1.410       .  A
C12         C223   1.410       .  A
C13          C14   1.379       .  A
C13         C222   1.413       .  A
C13          H17   1.080       .  S
C14          C15   1.444       .  A
C14         C145   1.513       .  S
C15          H18   1.082       .  S
H16         C221   1.079       .  S
C19          C20   1.432       .  A
C19          C24   1.379   1_565  A
C19         C183   1.513       .  S
C20          C21   1.440       .  A
C20          H25   1.082       .  S
C21          C22   1.389       .  A
C21          C55   1.513       .  S
C22          C23   1.409       .  A
C22          H26   1.081       .  S
C23          C24   1.408   1_565  A
C23          C30   1.474       .  S
C24          H27   1.080       .  S
C28          C29   1.382   1_545  A
C28          C33   1.413       .  A
C28          C85   1.508       .  S
C29          C30   1.417       .  A
C29          H34   1.080       .  S
C30          C31   1.411   1_565  A
C31          C32   1.385       .  A
C31          H35   1.081       .  S
C32          C33   1.434       .  A
C32         C139   1.499       .  S
C33          H36   1.082       .  S
O37          C47   1.291       .  A
O37        Ni255   1.980       .  S
O38          C48   1.297       .  A
O38         Ni45   1.997   1_554  S
O39         C259   1.275       .  A
O39        Ni255   1.903       .  S
O40          C50   1.279       .  A
O40        Ni465   1.881       .  S
O41          C50   1.274       .  A
O41        Ni466   1.900       .  S
O42          C49   1.278       .  A
O42         Ni46   1.922   1_545  S
O43          C48   1.287       .  A
O43         Ni46   1.944   1_554  S
O44          C47   1.283       .  A
O44        Ni256   1.916       .  S
Ni45        O247   1.993   1_565  S
Ni45        O249   1.896   1_565  S
Ni45        O460   1.901       .  S
Ni45        Ni46   2.381       .  S
Ni46        O461   1.891       .  S
Ni46        O254   1.928       .  S
C47         C181   1.500   1_545  S
C48          C51   1.536       .  S
C49         C269   1.463       .  S
C49         O249   1.281       .  A
C50         C401   1.442       .  S
C51          N52   1.373       .  A
C51          N56   1.388       .  A
N52          C53   1.365       .  A
C53         C114   1.470       .  S
C53          N54   1.343       .  A
N54          C55   1.342       .  A
C55          N56   1.391       .  A
C57         C130   1.506       .  S
C57          N58   1.335       .  A
C57          N62   1.387       .  A
N58          C59   1.342       .  A
C59         C259   1.445       .  S
C59          N60   1.353       .  A
N60          C61   1.358       .  A
C61          N62   1.396       .  A
O63          C73   1.278       .  A
O63         Ni71   1.875       .  S
O64          C74   1.279       .  A
O64        Ni911   1.888       .  S
O65          C75   1.278       .  A
O65        Ni491   1.914       .  S
O66         C916   1.283       .  A
O66        Ni911   1.940   1_545  S
O67          C76   1.293       .  A
O67         Ni72   1.991   1_655  S
O68         C915   1.293       .  A
O68       Ni1332   1.992       .  S
O69          C74   1.273       .  A
O69        Ni912   1.886       .  S
O70          C73   1.276       .  A
O70         Ni72   1.907       .  S
Ni71        O904   1.903   1_455  S
Ni71        O485   1.926       .  S
Ni71        O906   1.904       .  S
Ni71        Ni72   2.384       .  S
Ni72       O1328   1.996   1_545  S
Ni72        O909   1.902   1_455  S
C73          C87   1.445       .  S
C74         C185   1.435       .  S
C75         C175   1.530       .  S
C75         O908   1.303       .  A
C76          C77   1.504       .  S
C76         O906   1.281   1_655  A
C77          N82   1.381       .  A
C77         N918   1.340       .  A
N78         C917   1.390       .  A
N78         C919   1.377       .  A
C79         C128   1.448       .  S
C79          N80   1.346       .  A
C79         N918   1.343       .  A
N80          C81   1.359       .  A
C81         C197   1.503       .  S
C81          N82   1.394       .  A
C83          C99   1.490       .  S
C83          N84   1.380       .  A
C83          N88   1.334       .  A
N84          C85   1.390       .  A
C85          N86   1.361       .  A
N86          C87   1.351       .  A
C87          N88   1.339       .  A
O89          C99   1.285       .  A
O89        Ni307   1.958       .  S
O90         C100   1.290       .  A
O90         Ni97   1.982   1_554  S
O91         C311   1.289       .  A
O91        Ni727   1.910       .  S
O92         C102   1.278       .  A
O92         Ni97   1.916       .  S
O93         C102   1.273       .  A
O93         Ni98   1.852       .  S
O94         C101   1.278       .  A
O94        Ni518   1.874       .  S
O95         C100   1.289       .  A
O95         Ni98   1.935   1_554  S
O96          C99   1.288   1_565  A
O96        Ni308   1.928       .  S
Ni97        O299   1.974       .  S
Ni97        O721   1.906   1_545  S
Ni97        Ni98   2.387       .  S
Ni98        O514   1.883   1_545  S
Ni98        O306   1.909       .  S
C100        C137   1.521       .  S
C101        C383   1.448       .  S
C101        O301   1.276       .  A
C102        C357   1.440       .  S
O103        C113   1.264       .  A
O103       Ni111   1.864   1_455  S
O104        C114   1.277       .  A
O104       Ni951   1.922       .  S
O105        C115   1.287       .  A
O105       Ni111   1.919       .  S
O106        C116   1.289       .  A
O106       Ni531   1.946       .  S
O107        C116   1.289       .  A
O107       Ni532   1.968       .  S
O108        C955   1.290       .  A
O108       Ni952   1.971   1_545  S
O109        C114   1.284       .  A
O109       Ni952   1.911       .  S
O110        C113   1.289       .  A
O110       Ni112   1.921       .  S
Ni111       O944   1.834       .  S
Ni111       O526   1.939       .  S
Ni111      Ni112   2.386   1_655  S
Ni112       O527   1.980   1_545  S
Ni112       O948   1.976       .  S
Ni112       O949   1.935   1_455  S
C113        C141   1.439       .  S
C115        C131   1.502   1_655  S
C115        O948   1.287   1_655  A
C116        C163   1.518       .  S
O117        C967   1.277       .  A
O117      Ni1175   1.929   1_554  S
O118        C128   1.273       .  A
O118       Ni125   1.863       .  S
O119        C129   1.288   1_655  A
O119       Ni125   1.945       .  S
O120        C130   1.289       .  A
O120       Ni965   1.945       .  S
O121        C130   1.288       .  A
O121       Ni966   1.969       .  S
O122        C129   1.298       .  A
O122       Ni126   2.005   1_455  S
O123        C968   1.292       .  A
O123       Ni966   1.929       .  S
O124        C127   1.280       .  A
O124       Ni336   1.929   1_554  S
Ni125      O1167   1.879       .  S
Ni125       O960   1.908       .  S
Ni125      Ni126   2.381       .  S
Ni126       O961   2.002       .  S
Ni126       O963   1.924       .  S
Ni126       O334   1.906       .  S
C127        C133   1.448       .  S
C127        O957   1.272       .  A
C128        O963   1.281       .  A
C129        C143   1.544       .  S
C131        N132   1.333       .  A
C131        N136   1.381   1_455  A
N132        C133   1.339       .  A
C133        N134   1.347       .  A
N134        C135   1.363   1_455  A
C135        C206   1.506       .  S
C135        N136   1.396       .  A
C137        N138   1.391       .  A
C137        N142   1.361       .  A
N138        C139   1.393       .  A
C139        N140   1.336       .  A
N140        C141   1.325       .  A
C141        N142   1.353       .  A
C143        N144   1.397       .  A
C143        N148   1.378       .  A
N144        C145   1.395       .  A
C145        N146   1.326       .  A
N146        C147   1.327       .  A
C147        C312   1.462       .  S
C147        N148   1.366       .  A
O149        C159   1.268       .  A
O149       Ni367   1.890   1_554  S
O150       C1000   1.275       .  A
O150       Ni997   1.866       .  S
O151        C161   1.288       .  A
O151       Ni997   1.900       .  S
O152        C162   1.292   1_655  A
O152       Ni157   1.952       .  S
O153        C162   1.289       .  A
O153       Ni158   1.979   1_455  S
O154        C161   1.290       .  A
O154       Ni998   2.001       .  S
O155        C160   1.289       .  A
O155       Ni158   1.925       .  S
O156        C999   1.273       .  A
O156      Ni1208   1.911   1_554  S
Ni157       O359   1.881       .  S
Ni157       O990   1.922       .  S
Ni157       O991   1.933       .  S
Ni157      Ni158   2.383       .  S
Ni158       O994   1.967       .  S
Ni158      O1206   1.908       .  S
C159        C165   1.453       .  S
C159        O996   1.289       .  A
C160        C179   1.478       .  S
C160        O990   1.275       .  A
C161        C187   1.529       .  S
C162        C169   1.529       .  S
C163        N164   1.371       .  A
C163        N168   1.388       .  A
N164        C165   1.361       .  A
C165        N166   1.329       .  A
N166        C167   1.332       .  A
C167        C202   1.496       .  S
C167        N168   1.384       .  A
C169        N170   1.398       .  A
C169        N174   1.367       .  A
N170        C171   1.395       .  A
C171        N172   1.328       .  A
N172        C173   1.324       .  A
C173        C311   1.443       .  S
C173        N174   1.356       .  A
C175        N176   1.383       .  A
C175       N1020   1.379       .  A
N176        C177   1.386       .  A
C177        C193   1.499       .  S
C177        N178   1.341       .  A
N178        C179   1.336       .  A
C179       N1020   1.367       .  A
N180       C1015   1.335       .  A
N180       C1019   1.343       .  A
C181        N182   1.384       .  A
C181        N186   1.340       .  A
N182        C183   1.396       .  A
C183        N184   1.352       .  A
N184        C185   1.349       .  A
C185        N186   1.339       .  A
C187        N188   1.389       .  A
C187        N192   1.335       .  A
N188        C189   1.406       .  A
C189        N190   1.359       .  A
N190        C191   1.342       .  A
C191        C260   1.436       .  S
C191        N192   1.329       .  A
C193        C194   1.387       .  A
C193        C198   1.430       .  A
C194        C195   1.410       .  A
C194        H199   1.080       .  S
C195        C196   1.411   1_655  A
C195        C204   1.474       .  S
C196        C197   1.381   1_455  A
C196        H200   1.080       .  S
C197        C198   1.419       .  A
C198       H1041   1.082       .  S
H201       C1038   1.082       .  S
C202        C203   1.384   1_455  A
C202        C207   1.430   1_455  A
C203        C204   1.411       .  A
C203        H208   1.081   1_655  S
C204        C205   1.415       .  A
C205        C206   1.382       .  A
C205        H209   1.081       .  S
C206        C207   1.415       .  A
C207        H210   1.082       .  S
C211        C216   1.437       .  A
C211        C399   1.504       .  S
C212        C213   1.421       .  A
C212        H217   1.079       .  S
C213        C214   1.417       .  A
C213        C222   1.476       .  S
C214        H218   1.081       .  S
C215        C216   1.427       .  A
C215        C381   1.521       .  S
C216        H219   1.082       .  S
C220        C221   1.389   1_554  A
C220        C225   1.432       .  A
C220        C271   1.499       .  S
C223        C224   1.381   1_556  A
C223        H227   1.078       .  S
C224        C225   1.424       .  A
C224        C355   1.501   1_554  S
C225        H228   1.083       .  S
C229        C230   1.435       .  A
C229        C234   1.385       .  A
C229        C393   1.530       .  S
C230        C231   1.443       .  A
C230        H235   1.082       .  S
C231        C232   1.386       .  A
C231        C265   1.516       .  S
C232        C233   1.407       .  A
C232        H236   1.079       .  S
C233        C234   1.419       .  A
C233        C240   1.479       .  S
C234        H237   1.080       .  S
C238        C239   1.377       .  A
C238        C243   1.413       .  A
C238        C295   1.499   1_545  S
C239        C240   1.410       .  A
C239        H244   1.080       .  S
C240        C241   1.421       .  A
C241        C242   1.394       .  A
C241        H245   1.079       .  S
C242        C243   1.428       .  A
C242        C349   1.508   1_545  S
C243        H246   1.081   1_545  S
O247        C257   1.294       .  A
O248        C258   1.295       .  A
O248       Ni255   1.992       .  S
O250        C260   1.269       .  A
O250       Ni675   1.895       .  S
O251        C260   1.282       .  A
O251       Ni676   1.877       .  S
O252        C259   1.279       .  A
O252       Ni256   1.881       .  S
O253        C258   1.288       .  A
O253       Ni256   1.944       .  S
O254        C257   1.286   1_565  A
Ni255       O670   1.883   1_545  S
Ni255      Ni256   2.385       .  S
Ni256       O671   1.907   1_545  S
C257        C391   1.516       .  S
C258        C261   1.534       .  S
C261        N262   1.370       .  A
C261        N266   1.391       .  A
N262        C263   1.361       .  A
C263        C324   1.462       .  S
C263        N264   1.341       .  A
N264        C265   1.340       .  A
C265        N266   1.393       .  A
C267        C340   1.518       .  S
C267        N268   1.371       .  A
C267        N272   1.383   1_556  A
N268        C269   1.360       .  A
C269        N270   1.341       .  A
N270        C271   1.340   1_556  A
C271        N272   1.386       .  A
O273        C283   1.271       .  A
O273       Ni281   1.858       .  S
O274        C284   1.278       .  A
O274      Ni1121   1.881       .  S
O275        C285   1.291       .  A
O275       Ni701   1.902       .  S
O276       C1126   1.287       .  A
O276      Ni1121   1.901       .  S
O277        C286   1.297       .  A
O277       Ni282   2.001   1_445  S
O278       C1125   1.295       .  A
O278      Ni1542   1.991       .  S
O279        C284   1.274       .  A
O279      Ni1122   1.898       .  S
O280        C283   1.281       .  A
O280       Ni282   1.922   1_455  S
Ni281      O1114   1.879   1_455  S
Ni281       O695   1.908   1_455  S
Ni281      O1116   1.930   1_565  S
Ni281      Ni282   2.381   1_455  S
Ni282      O1538   2.014       .  S
Ni282      O1119   1.918       .  S
C283        C297   1.444       .  S
C284        C395   1.439       .  S
C285        C385   1.534   1_655  S
C285       O1118   1.290   1_655  A
C286        C287   1.530       .  S
C286       O1116   1.285       .  A
C287       N1128   1.370       .  A
C287        N292   1.390       .  A
N288       C1127   1.341       .  A
N288       C1129   1.334       .  A
C289        C338   1.455       .  S
C289       N1128   1.360       .  A
C289        N290   1.329       .  A
N290        C291   1.337       .  A
C291        C407   1.494       .  S
C291        N292   1.391       .  A
C293        C309   1.496   1_565  S
C293        N294   1.379   1_565  A
C293        N298   1.340       .  A
N294        C295   1.391   1_545  A
C295        N296   1.357       .  A
N296        C297   1.344       .  A
C297        N298   1.343       .  A
O299        C309   1.289       .  A
O300        C310   1.287   1_545  A
O300       Ni307   1.966       .  S
O301       Ni517   1.915       .  S
O302        C312   1.290       .  A
O302       Ni307   1.911       .  S
O303        C312   1.270       .  A
O303       Ni308   1.908   1_545  S
O304        C311   1.265       .  A
O304       Ni728   1.881       .  S
O305        C310   1.292       .  A
O305       Ni308   1.952       .  S
O306        C309   1.284       .  A
Ni307       O511   1.914   1_545  S
Ni307      Ni308   2.385   1_545  S
Ni308       O724   1.869       .  S
C310        C347   1.520       .  S
O313        C323   1.266       .  A
O313       Ni321   1.878   1_455  S
O314        C324   1.276       .  A
O314      Ni1161   1.916       .  S
O315        C325   1.293       .  A
O315       Ni321   1.953   1_545  S
O316        C326   1.285   1_455  A
O316       Ni741   1.926       .  S
O317        C326   1.286       .  A
O317       Ni742   1.958       .  S
O318       C1165   1.287       .  A
O318      Ni1162   1.959       .  S
O319        C324   1.283       .  A
O319      Ni1162   1.904       .  S
O320        C323   1.290       .  A
O320       Ni322   1.929   1_455  S
Ni321      O1154   1.847       .  S
Ni321       O736   1.936       .  S
Ni321      Ni322   2.385       .  S
Ni322       O737   1.964       .  S
Ni322      O1158   1.966   1_565  S
Ni322      O1159   1.937       .  S
C323        C351   1.453       .  S
C325        C341   1.520       .  S
C325       O1158   1.286       .  A
C326        C373   1.487       .  S
O327       C1177   1.281       .  A
O327       Ni965   1.889       .  S
O328        C338   1.267       .  A
O328       Ni335   1.885   1_556  S
O329        C339   1.287   1_554  A
O329       Ni335   1.922       .  S
O330        C340   1.280       .  A
O330      Ni1175   1.917       .  S
O331        C340   1.297   1_554  A
O331      Ni1176   1.995       .  S
O332        C339   1.289       .  A
O332       Ni336   1.980       .  S
O333       C1178   1.273       .  A
O333      Ni1176   1.913   1_556  S
O334        C337   1.286       .  A
Ni335       O957   1.849       .  S
Ni335      O1170   1.939   1_455  S
Ni335      Ni336   2.384   1_554  S
Ni336      O1171   1.980   1_455  S
Ni336      O1173   1.927       .  S
C337        C343   1.440       .  S
C337       O1167   1.267       .  A
C338       O1173   1.290       .  A
C339        C353   1.505       .  S
C341        N342   1.362       .  A
C341        N346   1.396       .  A
N342        C343   1.353       .  A
C343        N344   1.327       .  A
N344        C345   1.334       .  A
C345        C416   1.509   1_655  S
C345        N346   1.393       .  A
C347        N348   1.391       .  A
C347        N352   1.365       .  A
N348        C349   1.388       .  A
C349        N350   1.341       .  A
N350        C351   1.331       .  A
C351        N352   1.358       .  A
C353        N354   1.382   1_556  A
C353        N358   1.333       .  A
N354        C355   1.397   1_554  A
C355        N356   1.358       .  A
N356        C357   1.347       .  A
C357        N358   1.341       .  A
O359        C369   1.278       .  A
O360       C1210   1.272       .  A
O360      Ni1207   1.912   1_556  S
O361        C371   1.289       .  A
O361      Ni1207   1.938       .  S
O362        C372   1.287       .  A
O362       Ni367   1.929       .  S
O363        C372   1.291       .  A
O363       Ni368   1.981       .  S
O364        C371   1.288   1_556  A
O364      Ni1208   1.968       .  S
O365        C370   1.276       .  A
O365       Ni368   1.924       .  S
O366       C1209   1.288       .  A
O366       Ni998   1.910       .  S
Ni367      O1200   1.843       .  S
Ni367      O1201   1.953   1_455  S
Ni367      Ni368   2.384       .  S
Ni368      O1204   1.988   1_455  S
Ni368       O996   1.912   1_556  S
C369        C375   1.449       .  S
C369       O1206   1.278       .  A
C370        C389   1.437       .  S
C370       O1200   1.274       .  A
C371        C397   1.513       .  S
C372        C379   1.506       .  S
C373        N374   1.341       .  A
C373        N378   1.379   1_655  A
N374        C375   1.344       .  A
C375        N376   1.348       .  A
N376        C377   1.355       .  A
C377        C412   1.499   1_655  S
C377        N378   1.385   1_655  A
C379        N380   1.389       .  A
C379        N384   1.334   1_556  A
N380        C381   1.398       .  A
C381        N382   1.360   1_556  A
N382        C383   1.350       .  A
C383        N384   1.339       .  A
C385        N386   1.396       .  A
C385       N1230   1.322       .  A
N386        C387   1.415       .  A
C387        C403   1.517       .  S
C387        N388   1.368       .  A
N388        C389   1.339       .  A
C389       N1230   1.320       .  A
N390       C1225   1.378       .  A
N390       C1229   1.363       .  A
C391        N392   1.394       .  A
C391        N396   1.336       .  A
N392        C393   1.404       .  A
C393        N394   1.356       .  A
N394        C395   1.350       .  A
C395        N396   1.338       .  A
C397        N398   1.389   1_554  A
C397        N402   1.364       .  A
N398        C399   1.388       .  A
C399        N400   1.333   1_556  A
N400        C401   1.335       .  A
C401        N402   1.353       .  A
C403        C404   1.393       .  A
C403        C408   1.420       .  A
C404        C405   1.435       .  A
C404        H409   1.080       .  S
C405        C406   1.413       .  A
C405        C414   1.494       .  S
C406        C407   1.380       .  A
C406        H410   1.081       .  S
C407        C408   1.424       .  A
C408       H1251   1.083       .  S
H411       C1248   1.082       .  S
C412        C413   1.389       .  A
C412        C417   1.418   1_455  A
C413        C414   1.406       .  A
C413        H418   1.082       .  S
C414        C415   1.425       .  A
C415        C416   1.395       .  A
C415        H419   1.081       .  S
C416        C417   1.431   1_455  A
C417        H420   1.082       .  S
C421        C632   1.377       .  A
C421        C426   1.437       .  A
C421        C609   1.501       .  S
C422        C631   1.390       .  A
C422        C423   1.422       .  A
C422        H427   1.081       .  S
C423        C424   1.413       .  A
C423        C432   1.486       .  S
C424        C635   1.380       .  A
C424        H428   1.079       .  S
C425        C634   1.388       .  A
C425        C426   1.423       .  A
C425        C591   1.514       .  S
C426        H429   1.083       .  S
C430        C431   1.383       .  A
C430        C435   1.433       .  A
C430        C481   1.500       .  S
C431        C642   1.413       .  A
C431        H646   1.078       .  S
C432        C641   1.418       .  A
C432        C643   1.425       .  A
C433        C642   1.414       .  A
C433        C434   1.381       .  A
C433        H437   1.076       .  S
C434        C435   1.424       .  A
C434        C565   1.508       .  S
C435        H438   1.083       .  S
H436        C641   1.079       .  S
C439        C440   1.432       .  A
C439        C444   1.385       .  A
C439        C603   1.497       .  S
C440        C441   1.427       .  A
C440        H445   1.083       .  S
C441        C442   1.384       .  A
C441        C475   1.504       .  S
C442        C443   1.412       .  A
C442        H446   1.081       .  S
C443        C444   1.404       .  A
C443        C450   1.477       .  S
C444        H447   1.081       .  S
C448        C449   1.382       .  A
C448        C453   1.439       .  A
C448        C505   1.505       .  S
C449        C450   1.408       .  A
C449        H454   1.081       .  S
C450        C451   1.411       .  A
C451        C452   1.385       .  A
C451        H455   1.081       .  S
C452        C453   1.429       .  A
C452        C559   1.515       .  S
C453        H456   1.083       .  S
O457        C467   1.295       .  A
O457       Ni675   1.989       .  S
O458        C468   1.293       .  A
O458       Ni465   1.985       .  S
O459        C679   1.280       .  A
O459       Ni675   1.879       .  S
O460        C470   1.275       .  A
O461        C470   1.281       .  A
O462        C469   1.277       .  A
O462       Ni466   1.856       .  S
O463        C468   1.283       .  A
O463       Ni466   1.918       .  S
O464        C467   1.283       .  A
O464       Ni676   1.924       .  S
Ni465       O667   1.991   1_554  S
Ni465       O669   1.890       .  S
Ni465      Ni466   2.388       .  S
Ni466       O674   1.925   1_554  S
C467        C601   1.518       .  S
C468        C471   1.504       .  S
C469        C689   1.420       .  S
C469        O669   1.269       .  A
C470        C821   1.449       .  S
C471        N472   1.336       .  A
C471        N476   1.384       .  A
N472        C473   1.342       .  A
C473        C534   1.444       .  S
C473        N474   1.347       .  A
N474        C475   1.358       .  A
C475        N476   1.397       .  A
C477        C550   1.517       .  S
C477        N478   1.371       .  A
C477        N482   1.392       .  A
N478        C479   1.357       .  A
C479        C679   1.451       .  S
C479        N480   1.333       .  A
N480        C481   1.328       .  A
C481        N482   1.387       .  A
O483        C493   1.272       .  A
O483       Ni491   1.892   1_455  S
O484        C494   1.278       .  A
O484      Ni1331   1.917       .  S
O485        C495   1.283   1_545  A
O486       C1336   1.285       .  A
O486      Ni1331   1.934       .  S
O487        C496   1.293   1_455  A
O487       Ni492   2.012   1_455  S
O488       C1335   1.293       .  A
O488       Ni912   2.009       .  S
O489        C494   1.281       .  A
O489      Ni1332   1.901       .  S
O490        C493   1.281       .  A
O490       Ni492   1.894   1_455  S
Ni491      O1324   1.862       .  S
Ni491      O1326   1.876       .  S
Ni491      Ni492   2.382       .  S
Ni492       O908   2.013       .  S
Ni492      O1329   1.902       .  S
C493        C507   1.442       .  S
C494        C605   1.461       .  S
C495        C595   1.526       .  S
C495       O1328   1.296       .  A
C496        C497   1.530   1_655  S
C496       O1326   1.284       .  A
C497       N1338   1.329   1_455  A
C497        N502   1.389       .  A
N498       C1337   1.377       .  A
N498       C1339   1.362       .  A
C499        C548   1.433       .  S
C499       N1338   1.319   1_455  A
C499        N500   1.338       .  A
N500        C501   1.362       .  A
C501        C617   1.505       .  S
C501        N502   1.410       .  A
C503        C519   1.520       .  S
C503        N504   1.390       .  A
C503        N508   1.362       .  A
N504        C505   1.393       .  A
C505        N506   1.336       .  A
N506        C507   1.336       .  A
C507        N508   1.353       .  A
O509        C519   1.290       .  A
O509       Ni727   1.977       .  S
O510        C520   1.290       .  A
O510       Ni517   1.976       .  S
O511        C731   1.278       .  A
O512        C522   1.285       .  A
O512       Ni517   1.914       .  S
O513        C522   1.275       .  A
O513       Ni518   1.910       .  S
O514        C521   1.268       .  A
O515        C520   1.287       .  A
O515       Ni518   1.935       .  S
O516        C519   1.289       .  A
O516       Ni728   1.938       .  S
Ni517       O719   1.983   1_554  S
Ni517      Ni518   2.383       .  S
Ni518       O726   1.946   1_554  S
C520        C557   1.504       .  S
C521        C803   1.443       .  S
C521        O721   1.287       .  A
C522        C777   1.464       .  S
O523        C533   1.277       .  A
O523       Ni531   1.871       .  S
O524        C534   1.273       .  A
O524      Ni1371   1.858       .  S
O525        C535   1.286       .  A
O525       Ni531   1.928       .  S
O526        C536   1.290   1_545  A
O527        C536   1.289   1_455  A
O528       C1375   1.296       .  A
O528      Ni1372   2.000       .  S
O529        C534   1.279       .  A
O529      Ni1372   1.920       .  S
O530        C533   1.277       .  A
O530       Ni532   1.910       .  S
Ni531      O1364   1.911   1_455  S
Ni531      Ni532   2.385       .  S
Ni532      O1368   1.965       .  S
Ni532      O1369   1.913   1_455  S
C533        C561   1.444       .  S
C535        C551   1.493       .  S
C535       O1368   1.288       .  A
C536        C583   1.521       .  S
O537       C1387   1.269       .  A
O537      Ni1595   1.899   1_554  S
O538        C548   1.281       .  A
O538       Ni545   1.863       .  S
O539        C549   1.284       .  A
O539       Ni545   1.899       .  S
O540        C550   1.288       .  A
O540      Ni1385   1.940       .  S
O541        C550   1.289       .  A
O541      Ni1386   1.970       .  S
O542        C549   1.296       .  A
O542       Ni546   2.012       .  S
O543       C1388   1.290       .  A
O543      Ni1386   1.914       .  S
O544        C547   1.276       .  A
O544       Ni756   1.907       .  S
Ni545      O1587   1.916       .  S
Ni545      O1380   1.913   1_455  S
Ni545      Ni546   2.381       .  S
Ni546      O1381   2.018   1_455  S
Ni546      O1383   1.898       .  S
Ni546       O754   1.884       .  S
C547        C553   1.448       .  S
C547       O1377   1.279       .  A
C548       O1383   1.269       .  A
C549        C563   1.523       .  S
C551        N552   1.338   1_455  A
C551        N556   1.385       .  A
N552        C553   1.340       .  A
C553        N554   1.351       .  A
N554        C555   1.359   1_655  A
C555        C626   1.517       .  S
C555        N556   1.391       .  A
C557        N558   1.386       .  A
C557        N562   1.334       .  A
N558        C559   1.397       .  A
C559        N560   1.359       .  A
N560        C561   1.351       .  A
C561        N562   1.341       .  A
C563        N564   1.385       .  A
C563        N568   1.318       .  A
N564        C565   1.413       .  A
C565        N566   1.372       .  A
N566        C567   1.345       .  A
C567        C732   1.448       .  S
C567        N568   1.325       .  A
O569        C579   1.264       .  A
O569       Ni787   1.864   1_554  S
O570       C1420   1.280       .  A
O570      Ni1417   1.877       .  S
O571        C581   1.281       .  A
O571      Ni1417   1.913       .  S
O572        C582   1.287       .  A
O572       Ni577   1.930       .  S
O573        C582   1.289       .  A
O573       Ni578   1.972       .  S
O574        C581   1.296       .  A
O574      Ni1418   1.998       .  S
O575        C580   1.285       .  A
O575       Ni578   1.908       .  S
O576       C1419   1.275       .  A
O576      Ni1628   1.905       .  S
Ni577       O779   1.874       .  S
Ni577      O1410   1.911       .  S
Ni577      O1411   1.950   1_455  S
Ni577      Ni578   2.385       .  S
Ni578      O1414   1.981   1_455  S
Ni578      O1626   1.902       .  S
C579        C585   1.434       .  S
C579       O1416   1.288       .  A
C580        C599   1.461       .  S
C580       O1410   1.274       .  A
C581        C607   1.519       .  S
C582        C589   1.501       .  S
C583        N584   1.361       .  A
C583        N588   1.395   1_655  A
N584        C585   1.352       .  A
C585        N586   1.323       .  A
N586        C587   1.332   1_655  A
C587        C622   1.508       .  S
C587        N588   1.395       .  A
C589        N590   1.384       .  A
C589        N594   1.335       .  A
N590        C591   1.393       .  A
C591        N592   1.360       .  A
N592        C593   1.352       .  A
C593        C731   1.449       .  S
C593        N594   1.343       .  A
C595        N596   1.389       .  A
C595       N1440   1.372       .  A
N596        C597   1.389       .  A
C597        C613   1.501       .  S
C597        N598   1.337       .  A
N598        C599   1.334       .  A
C599       N1440   1.359       .  A
N600       C1435   1.342       .  A
N600       C1439   1.336       .  A
C601        N602   1.382       .  A
C601        N606   1.368       .  A
N602        C603   1.386       .  A
C603        N604   1.342       .  A
N604        C605   1.343       .  A
C605        N606   1.359       .  A
C607        N608   1.388       .  A
C607        N612   1.369       .  A
N608        C609   1.391       .  A
C609        N610   1.331       .  A
N610        C611   1.331       .  A
C611        C680   1.446       .  S
C611        N612   1.353       .  A
C613        C614   1.386       .  A
C613        C618   1.425       .  A
C614        C615   1.416       .  A
C614        H619   1.078       .  S
C615        C616   1.421       .  A
C615        C624   1.485       .  S
C616        C617   1.381       .  A
C616        H620   1.076       .  S
C617        C618   1.422       .  A
C618       H1461   1.083       .  S
H621       C1458   1.081       .  S
C622        C623   1.380       .  A
C622        C627   1.435       .  A
C623        C624   1.418       .  A
C623        H628   1.075       .  S
C624        C625   1.417       .  A
C625        C626   1.388       .  A
C625        H629   1.079       .  S
C626        C627   1.418       .  A
C627        H630   1.081   1_455  S
C631        C636   1.424       .  A
C631        C819   1.527       .  S
C632        C633   1.407       .  A
C632        H637   1.075       .  S
C633        C634   1.414       .  A
C633        C642   1.480       .  S
C634        H638   1.078       .  S
C635        C636   1.440       .  A
C635        C801   1.509   1_554  S
C636        H639   1.081   1_554  S
C640        C641   1.374       .  A
C640        C645   1.420       .  A
C640        C691   1.498       .  S
C643        C644   1.392       .  A
C643        H647   1.080       .  S
C644        C645   1.420       .  A
C644        C775   1.508       .  S
C645        H648   1.082       .  S
C649        C650   1.430       .  A
C649        C654   1.387       .  A
C649        C813   1.500       .  S
C650        C651   1.426       .  A
C650        H655   1.083       .  S
C651        C652   1.384       .  A
C651        C685   1.507       .  S
C652        C653   1.411       .  A
C652        H656   1.081       .  S
C653        C654   1.406       .  A
C653        C660   1.478       .  S
C654        H657   1.078       .  S
C658        C659   1.389       .  A
C658        C663   1.433       .  A
C658        C715   1.499       .  S
C659        C660   1.411       .  A
C659        H664   1.079       .  S
C660        C661   1.412       .  A
C661        C662   1.381       .  A
C661        H665   1.080       .  S
C662        C663   1.416       .  A
C662        C769   1.501       .  S
C663        H666   1.083       .  S
O667        C677   1.296       .  A
O668        C678   1.295       .  A
O668       Ni675   1.985       .  S
O670        C680   1.280       .  A
O671        C680   1.274       .  A
O672        C679   1.275       .  A
O672       Ni676   1.915       .  S
O673        C678   1.282       .  A
O673       Ni676   1.924       .  S
O674        C677   1.282       .  A
Ni675      Ni676   2.386       .  S
C677        C811   1.519       .  S
C678        C681   1.505       .  S
C681        N682   1.340       .  A
C681        N686   1.385       .  A
N682        C683   1.346       .  A
C683        C744   1.445       .  S
C683        N684   1.346       .  A
N684        C685   1.356       .  A
C685        N686   1.395       .  A
C687        C760   1.520       .  S
C687        N688   1.332       .  A
C687        N692   1.389   1_556  A
N688        C689   1.324   1_556  A
C689        N690   1.331       .  A
N690        C691   1.353       .  A
C691        N692   1.406       .  A
O693        C703   1.267       .  A
O693       Ni701   1.886   1_455  S
O694        C704   1.278       .  A
O694      Ni1541   1.919       .  S
O695        C705   1.288       .  A
O696       C1546   1.286       .  A
O696      Ni1541   1.920       .  S
O697        C706   1.296       .  A
O697       Ni702   1.997       .  S
O698       C1545   1.304   1_545  A
O698      Ni1122   2.021       .  S
O699        C704   1.282       .  A
O699      Ni1542   1.906       .  S
O700        C703   1.290       .  A
O700       Ni702   1.924   1_455  S
Ni701      O1534   1.850       .  S
Ni701      O1536   1.937       .  S
Ni701      Ni702   2.381       .  S
Ni702      O1118   2.006   1_655  S
Ni702      O1539   1.919       .  S
C703        C717   1.455       .  S
C704        C815   1.466       .  S
C705        C805   1.536       .  S
C705       O1538   1.294       .  A
C706        C707   1.531       .  S
C706       O1536   1.286       .  A
C707       N1548   1.371       .  A
C707        N712   1.390       .  A
N708       C1547   1.334       .  A
N708       C1549   1.342       .  A
C709        C758   1.467       .  S
C709       N1548   1.361       .  A
C709        N710   1.340       .  A
N710        C711   1.342       .  A
C711        C827   1.514       .  S
C711        N712   1.391       .  A
C713        C729   1.528       .  S
C713        N714   1.388       .  A
C713        N718   1.370       .  A
N714        C715   1.388       .  A
C715        N716   1.336       .  A
N716        C717   1.330       .  A
C717        N718   1.362       .  A
O719        C729   1.292       .  A
O720        C730   1.291       .  A
O720       Ni727   1.978       .  S
O722        C732   1.277       .  A
O722       Ni727   1.931       .  S
O723        C732   1.273       .  A
O723       Ni728   1.835       .  S
O724        C731   1.277       .  A
O725        C730   1.284       .  A
O725       Ni728   1.916       .  S
O726        C729   1.288       .  A
Ni727      Ni728   2.385       .  S
C730        C767   1.497       .  S
O733        C743   1.273       .  A
O733       Ni741   1.857       .  S
O734        C744   1.271       .  A
O734      Ni1581   1.857       .  S
O735        C745   1.291       .  A
O735       Ni741   1.946       .  S
O736        C746   1.289       .  A
O737        C746   1.286       .  A
O738       C1585   1.286       .  A
O738      Ni1582   1.972       .  S
O739        C744   1.282       .  A
O739      Ni1582   1.923       .  S
O740        C743   1.281       .  A
O740       Ni742   1.927   1_455  S
Ni741      O1574   1.889   1_455  S
Ni741      Ni742   2.386   1_455  S
Ni742      O1578   1.960       .  S
Ni742      O1579   1.917       .  S
C743        C771   1.449       .  S
C745        C761   1.513       .  S
C745       O1578   1.285   1_455  A
C746        C793   1.497       .  S
O747       C1597   1.278       .  A
O747      Ni1385   1.861       .  S
O748        C758   1.276       .  A
O748       Ni755   1.917   1_556  S
O749        C759   1.287       .  A
O749       Ni755   1.942   1_455  S
O750        C760   1.286       .  A
O750      Ni1595   1.889       .  S
O751        C760   1.289   1_554  A
O751      Ni1596   1.997       .  S
O752        C759   1.293       .  A
O752       Ni756   1.985   1_455  S
O753       C1598   1.279       .  A
O753      Ni1596   1.929   1_556  S
O754        C757   1.279       .  A
Ni755      O1377   1.882       .  S
Ni755      O1590   1.924       .  S
Ni755      Ni756   2.384       .  S
Ni756      O1591   1.977       .  S
Ni756      O1593   1.914   1_554  S
C757        C763   1.454       .  S
C757       O1587   1.277       .  A
C758       O1593   1.285       .  A
C759        C773   1.525       .  S
C761        N762   1.366       .  A
C761        N766   1.392   1_455  A
N762        C763   1.354       .  A
C763        N764   1.338       .  A
N764        C765   1.337       .  A
C765        C836   1.517   1_455  S
C765        N766   1.388   1_455  A
C767        N768   1.378       .  A
C767        N772   1.335       .  A
N768        C769   1.394       .  A
C769        N770   1.363       .  A
N770        C771   1.349       .  A
C771        N772   1.342       .  A
C773        N774   1.390       .  A
C773        N778   1.370       .  A
N774        C775   1.388       .  A
C775        N776   1.343       .  A
N776        C777   1.338       .  A
C777        N778   1.360       .  A
O779        C789   1.278       .  A
O780       C1630   1.278       .  A
O780      Ni1627   1.936   1_556  S
O781        C791   1.288       .  A
O781      Ni1627   1.942       .  S
O782        C792   1.285       .  A
O782       Ni787   1.924   1_455  S
O783        C792   1.297   1_554  A
O783       Ni788   2.005   1_455  S
O784        C791   1.288       .  A
O784      Ni1628   1.965       .  S
O785        C790   1.281       .  A
O785       Ni788   1.934   1_556  S
O786       C1629   1.285       .  A
O786      Ni1418   1.894       .  S
Ni787      O1620   1.842       .  S
Ni787      O1621   1.892       .  S
Ni787      Ni788   2.383   1_556  S
Ni788      O1624   1.993       .  S
Ni788      O1416   1.911       .  S
C789        C795   1.441       .  S
C789       O1626   1.275       .  A
C790        C809   1.447       .  S
C790       O1620   1.271       .  A
C791        C817   1.502   1_554  S
C792        C799   1.531       .  S
C793        N794   1.334   1_655  A
C793        N798   1.384       .  A
N794        C795   1.338       .  A
C795        N796   1.349       .  A
N796        C797   1.357   1_455  A
C797        C832   1.513       .  S
C797        N798   1.394       .  A
C799        N800   1.396   1_556  A
C799        N804   1.367       .  A
N800        C801   1.398   1_554  A
C801        N802   1.331       .  A
N802        C803   1.325       .  A
C803        N804   1.353       .  A
C805        N806   1.394       .  A
C805       N1650   1.331       .  A
N806        C807   1.413       .  A
C807        C823   1.523       .  S
C807        N808   1.364       .  A
N808        C809   1.342       .  A
C809       N1650   1.333       .  A
N810       C1645   1.386       .  A
N810       C1649   1.373       .  A
C811        N812   1.381       .  A
C811        N816   1.370       .  A
N812        C813   1.385       .  A
C813        N814   1.344       .  A
N814        C815   1.344       .  A
C815        N816   1.361       .  A
C817        N818   1.389   1_556  A
C817        N822   1.337       .  A
N818        C819   1.394       .  A
C819        N820   1.358   1_554  A
N820        C821   1.353       .  A
C821        N822   1.341       .  A
C823        C824   1.386       .  A
C823        C828   1.427       .  A
C824        C825   1.426       .  A
C824        H829   1.077       .  S
C825        C826   1.412       .  A
C825        C834   1.486       .  S
C826        C827   1.389       .  A
C826        H830   1.079       .  S
C827        C828   1.433       .  A
C828       H1671   1.082       .  S
H831       C1668   1.082       .  S
C832        C833   1.384       .  A
C832        C837   1.423       .  A
C833        C834   1.411       .  A
C833        H838   1.080       .  S
C834        C835   1.422       .  A
C835        C836   1.391       .  A
C835        H839   1.078       .  S
C836        C837   1.435       .  A
C837        H840   1.082   1_655  S
C841       C1052   1.388       .  A
C841        C846   1.420       .  A
C841       C1029   1.518       .  S
C842       C1051   1.388       .  A
C842        C843   1.414       .  A
C842        H847   1.080       .  S
C843        C844   1.409       .  A
C843        C852   1.493       .  S
C844       C1055   1.390       .  A
C844        H848   1.081       .  S
C845       C1054   1.388       .  A
C845        C846   1.436       .  A
C845       C1011   1.518       .  S
C846        H849   1.081       .  S
C850        C851   1.387       .  A
C850        C855   1.413       .  A
C850        C901   1.517       .  S
C851       C1062   1.433       .  A
C851       H1066   1.075       .  S
C852       C1061   1.413       .  A
C852       C1063   1.422       .  A
C853       C1062   1.421       .  A
C853        C854   1.387       .  A
C853        H857   1.081       .  S
C854        C855   1.423       .  A
C854        C985   1.504       .  S
C855        H858   1.082       .  S
H856       C1061   1.078       .  S
C859        C860   1.423       .  A
C859        C864   1.386       .  A
C859       C1023   1.495       .  S
C860        C861   1.421       .  A
C860        H865   1.083       .  S
C861        C862   1.388       .  A
C861        C895   1.504       .  S
C862        C863   1.425       .  A
C862        H866   1.077       .  S
C863        C864   1.411       .  A
C863        C870   1.495       .  S
C864        H867   1.078       .  S
C868        C869   1.391       .  A
C868        C873   1.435       .  A
C868        C925   1.516       .  S
C869        C870   1.420       .  A
C869        H874   1.078       .  S
C870        C871   1.408       .  A
C871        C872   1.386       .  A
C871        H875   1.080       .  S
C872        C873   1.425       .  A
C872        C979   1.512       .  S
C873        H876   1.081       .  S
O877        C887   1.290       .  A
O877      Ni1095   1.972       .  S
O878        C888   1.292       .  A
O878       Ni885   1.998       .  S
O879       C1099   1.277       .  A
O879      Ni1095   1.922       .  S
O880        C890   1.288       .  A
O880      Ni1305   1.908       .  S
O881        C890   1.270       .  A
O881      Ni1306   1.900       .  S
O882        C889   1.265       .  A
O882       Ni886   1.870       .  S
O883        C888   1.287       .  A
O883       Ni886   1.910       .  S
O884        C887   1.285       .  A
O884      Ni1096   1.924       .  S
Ni885      O1087   1.985   1_554  S
Ni885      O1089   1.919       .  S
Ni885      O1300   1.933   1_545  S
Ni885      Ni886   2.384       .  S
Ni886      O1301   1.837   1_545  S
Ni886      O1094   1.919   1_554  S
C887       C1021   1.507       .  S
C888        C891   1.519       .  S
C889       C1109   1.441       .  S
C889       O1089   1.289       .  A
C890       C1241   1.456       .  S
C891        N892   1.332       .  A
C891        N896   1.388       .  A
N892        C893   1.335       .  A
C893        C954   1.443       .  S
C893        N894   1.341       .  A
N894        C895   1.362       .  A
C895        N896   1.406       .  A
C897        C970   1.531       .  S
C897        N898   1.340       .  A
C897        N902   1.392       .  A
N898        C899   1.334       .  A
C899       C1099   1.445       .  S
C899        N900   1.340       .  A
N900        C901   1.362       .  A
C901        N902   1.404       .  A
O903        C913   1.275       .  A
O903       Ni911   1.891       .  S
O904        C914   1.275       .  A
O905        C915   1.283       .  A
O905      Ni1331   1.913       .  S
O907        C916   1.305       .  A
O907       Ni912   2.022   1_545  S
O909        C914   1.281       .  A
O910        C913   1.276       .  A
O910       Ni912   1.887       .  S
Ni911      O1325   1.902       .  S
Ni911      Ni912   2.381       .  S
C913        C927   1.436       .  S
C914       C1025   1.451       .  S
C915       C1015   1.509       .  S
C916        C917   1.550       .  S
C917        N922   1.390       .  A
C919        C968   1.493       .  S
C919        N920   1.334       .  A
N920        C921   1.335       .  A
C921       C1037   1.511       .  S
C921        N922   1.387       .  A
C923        C939   1.511       .  S
C923        N924   1.393       .  A
C923        N928   1.352   1_545  A
N924        C925   1.395       .  A
C925        N926   1.343       .  A
N926        C927   1.337   1_545  A
C927        N928   1.342       .  A
O929        C939   1.284       .  A
O929      Ni1147   1.963       .  S
O930        C940   1.289       .  A
O930       Ni937   1.966       .  S
O931       C1151   1.286       .  A
O931      Ni1567   1.904       .  S
O932        C942   1.281       .  A
O932       Ni937   1.943       .  S
O933        C942   1.271       .  A
O933       Ni938   1.840       .  S
O934        C941   1.278       .  A
O934      Ni1358   1.884       .  S
O935        C940   1.284       .  A
O935       Ni938   1.925       .  S
O936        C939   1.292       .  A
O936      Ni1148   1.937   1_545  S
Ni937      O1139   1.961   1_554  S
Ni937      O1561   1.932   1_545  S
Ni937      Ni938   2.384       .  S
Ni938      O1354   1.884   1_545  S
Ni938      O1146   1.938   1_554  S
C940        C977   1.490       .  S
C941       C1223   1.447       .  S
C941       O1141   1.277       .  A
C942       C1197   1.453       .  S
O943        C953   1.278       .  A
O943       Ni951   1.888       .  S
O944        C954   1.268       .  A
O945        C955   1.290       .  A
O945       Ni951   1.953   1_545  S
O946        C956   1.288       .  A
O946      Ni1371   1.905       .  S
O947        C956   1.291       .  A
O947      Ni1372   2.001       .  S
O949        C954   1.282       .  A
O950        C953   1.277       .  A
O950       Ni952   1.902       .  S
Ni951      O1366   1.933       .  S
Ni951      Ni952   2.384       .  S
Ni952      O1367   1.957       .  S
C953        C981   1.446       .  S
C955        C971   1.526       .  S
C956       C1003   1.526       .  S
O958        C968   1.277       .  A
O958       Ni965   1.936       .  S
O959        C969   1.292       .  A
O959       Ni965   1.959       .  S
O960        C970   1.290       .  A
O961        C970   1.290       .  A
O962        C969   1.288       .  A
O962       Ni966   1.971       .  S
O964        C967   1.285       .  A
O964      Ni1176   1.903       .  S
Ni965      Ni966   2.380       .  S
Ni966      O1174   1.913       .  S
C967        C973   1.473       .  S
C969        C983   1.526       .  S
C971        N972   1.377       .  A
C971        N976   1.394       .  A
N972        C973   1.364       .  A
C973        N974   1.334       .  A
N974        C975   1.335       .  A
C975       C1046   1.518       .  S
C975        N976   1.386       .  A
C977        N978   1.383       .  A
C977        N982   1.341   1_545  A
N978        C979   1.390       .  A
C979        N980   1.355   1_545  A
N980        C981   1.349       .  A
C981        N982   1.342       .  A
C983        N984   1.395       .  A
C983        N988   1.367       .  A
N984        C985   1.391       .  A
C985        N986   1.334       .  A
N986        C987   1.324       .  A
C987       C1152   1.449       .  S
C987        N988   1.359       .  A
O989        C999   1.279       .  A
O989      Ni1207   1.868       .  S
O991       C1001   1.286       .  A
O992       C1002   1.286       .  A
O992       Ni997   1.934       .  S
O993       C1002   1.298       .  A
O993       Ni998   2.005       .  S
O994       C1001   1.289       .  A
O995       C1000   1.281       .  A
O995       Ni998   1.936       .  S
Ni997      O1199   1.890       .  S
Ni997      Ni998   2.380       .  S
C999       C1005   1.441       .  S
C1000      C1019   1.461       .  S
C1001      C1027   1.499       .  S
C1002      C1009   1.536       .  S
C1003      N1004   1.331       .  A
C1003      N1008   1.388       .  A
N1004      C1005   1.329       .  A
C1005      N1006   1.342       .  A
N1006      C1007   1.365       .  A
C1007      C1042   1.515       .  S
C1007      N1008   1.406       .  A
C1009      N1010   1.397       .  A
C1009      N1014   1.377       .  A
N1010      C1011   1.394       .  A
C1011      N1012   1.332       .  A
N1012      C1013   1.330       .  A
C1013      C1151   1.466       .  S
C1013      N1014   1.361       .  A
C1015      N1016   1.382       .  A
N1016      C1017   1.397       .  A
C1017      C1033   1.521       .  S
C1017      N1018   1.368       .  A
N1018      C1019   1.355       .  A
C1021      N1022   1.382       .  A
C1021      N1026   1.361       .  A
N1022      C1023   1.385       .  A
C1023      N1024   1.343       .  A
N1024      C1025   1.341       .  A
C1025      N1026   1.353       .  A
C1027      N1028   1.385       .  A
C1027      N1032   1.339       .  A
N1028      C1029   1.391       .  A
C1029      N1030   1.358       .  A
N1030      C1031   1.351       .  A
C1031      C1100   1.451       .  S
C1031      N1032   1.345       .  A
C1033      C1034   1.388       .  A
C1033      C1038   1.420       .  A
C1034      C1035   1.418       .  A
C1034      H1039   1.078       .  S
C1035      C1036   1.414       .  A
C1035      C1044   1.489       .  S
C1036      C1037   1.393       .  A
C1036      H1040   1.079       .  S
C1037      C1038   1.439       .  A
C1042      C1043   1.381       .  A
C1042      C1047   1.417       .  A
C1043      C1044   1.421       .  A
C1043      H1048   1.078       .  S
C1044      C1045   1.424       .  A
C1045      C1046   1.397       .  A
C1045      H1049   1.080       .  S
C1046      C1047   1.432       .  A
C1047      H1050   1.081       .  S
C1051      C1056   1.438       .  A
C1051      C1239   1.510   1_554  S
C1052      C1053   1.416       .  A
C1052      H1057   1.078       .  S
C1053      C1054   1.424       .  A
C1053      C1062   1.492       .  S
C1054      H1058   1.079       .  S
C1055      C1056   1.425       .  A
C1055      C1221   1.511       .  S
C1056      H1059   1.082   1_554  S
C1060      C1061   1.383   1_556  A
C1060      C1065   1.430       .  A
C1060      C1111   1.490       .  S
C1063      C1064   1.389   1_554  A
C1063      H1067   1.077       .  S
C1064      C1065   1.418       .  A
C1064      C1195   1.505       .  S
C1065      H1068   1.084       .  S
C1069      C1070   1.423       .  A
C1069      C1074   1.386   1_545  A
C1069      C1233   1.487       .  S
C1070      C1071   1.414       .  A
C1070      H1075   1.084       .  S
C1071      C1072   1.390   1_545  A
C1071      C1105   1.493       .  S
C1072      C1073   1.421       .  A
C1072      H1076   1.078       .  S
C1073      C1074   1.411       .  A
C1073      C1080   1.497       .  S
C1074      H1077   1.078       .  S
C1078      C1079   1.392       .  A
C1078      C1083   1.434   1_565  A
C1078      C1135   1.512   1_565  S
C1079      C1080   1.417       .  A
C1079      H1084   1.080       .  S
C1080      C1081   1.409       .  A
C1081      C1082   1.388       .  A
C1081      H1085   1.080       .  S
C1082      C1083   1.423   1_565  A
C1082      C1189   1.508   1_565  S
C1083      H1086   1.081       .  S
O1087      C1097   1.292       .  A
O1088      C1098   1.290       .  A
O1088     Ni1095   1.980       .  S
O1090      C1100   1.278       .  A
O1090     Ni1515   1.914       .  S
O1091      C1100   1.277       .  A
O1091     Ni1516   1.880       .  S
O1092      C1099   1.276       .  A
O1092     Ni1096   1.862       .  S
O1093      C1098   1.285       .  A
O1093     Ni1096   1.916       .  S
O1094      C1097   1.284       .  A
Ni1095     O1510   1.913   1_545  S
Ni1095    Ni1096   2.386       .  S
Ni1096     O1511   1.904   1_545  S
C1097      C1231   1.513       .  S
C1098      C1101   1.501       .  S
C1101      N1102   1.335   1_545  A
C1101      N1106   1.381       .  A
N1102      C1103   1.340       .  A
C1103      C1164   1.448       .  S
C1103      N1104   1.345       .  A
N1104      C1105   1.363   1_565  A
C1105      N1106   1.396       .  A
C1107      C1180   1.523       .  S
C1107      N1108   1.364   1_556  A
C1107      N1112   1.390       .  A
N1108      C1109   1.356       .  A
C1109      N1110   1.326       .  A
N1110      C1111   1.334   1_554  A
C1111      N1112   1.392       .  A
O1113      C1123   1.273       .  A
O1113     Ni1121   1.893       .  S
O1114      C1124   1.269       .  A
O1115      C1125   1.286       .  A
O1115     Ni1541   1.940       .  S
O1117      C1126   1.293       .  A
O1117     Ni1122   2.011       .  S
O1119      C1124   1.285       .  A
O1120      C1123   1.278       .  A
O1120     Ni1122   1.887       .  S
Ni1121     O1535   1.936       .  S
Ni1121    Ni1122   2.381       .  S
C1123      C1137   1.437       .  S
C1124      C1235   1.447   1_565  S
C1125      C1225   1.530       .  S
C1126      C1127   1.537       .  S
C1127      N1132   1.393       .  A
C1129      C1178   1.451       .  S
C1129      N1130   1.345       .  A
N1130      C1131   1.362       .  A
C1131      C1247   1.525       .  S
C1131      N1132   1.406       .  A
C1133      C1149   1.509       .  S
C1133      N1134   1.393       .  A
C1133      N1138   1.357       .  A
N1134      C1135   1.392       .  A
C1135      N1136   1.339       .  A
N1136      C1137   1.334       .  A
C1137      N1138   1.345       .  A
O1139      C1149   1.284       .  A
O1140      C1150   1.287       .  A
O1140     Ni1147   1.960       .  S
O1141     Ni1357   1.907       .  S
O1142      C1152   1.293       .  A
O1142     Ni1147   1.932       .  S
O1143      C1152   1.263       .  A
O1143     Ni1148   1.872   1_545  S
O1144      C1151   1.275       .  A
O1144     Ni1568   1.919       .  S
O1145      C1150   1.285   1_565  A
O1145     Ni1148   1.928       .  S
O1146      C1149   1.291       .  A
Ni1147     O1351   1.942   1_545  S
Ni1147    Ni1148   2.386   1_545  S
Ni1148     O1564   1.834       .  S
C1150      C1187   1.488       .  S
O1153      C1163   1.278       .  A
O1153     Ni1161   1.883       .  S
O1154      C1164   1.269       .  A
O1155      C1165   1.286       .  A
O1155     Ni1161   1.933       .  S
O1156      C1166   1.294       .  A
O1156     Ni1581   1.960       .  S
O1157      C1166   1.289       .  A
O1157     Ni1582   1.978       .  S
O1159      C1164   1.283       .  A
O1160      C1163   1.276       .  A
O1160     Ni1162   1.899       .  S
Ni1161     O1576   1.954       .  S
Ni1161    Ni1162   2.385       .  S
Ni1162     O1577   1.974       .  S
C1163      C1191   1.442       .  S
C1165      C1181   1.492       .  S
C1166      C1213   1.532       .  S
O1168      C1178   1.282       .  A
O1168     Ni1175   1.880       .  S
O1169      C1179   1.286       .  A
O1169     Ni1175   1.915       .  S
O1170      C1180   1.289   1_554  A
O1171      C1180   1.291       .  A
O1172      C1179   1.293   1_554  A
O1172     Ni1176   2.000       .  S
O1174      C1177   1.277       .  A
Ni1175    Ni1176   2.381   1_556  S
C1177      C1183   1.457       .  S
C1179      C1193   1.518       .  S
C1181      N1182   1.338       .  A
C1181      N1186   1.379       .  A
N1182      C1183   1.344       .  A
C1183      N1184   1.357       .  A
N1184      C1185   1.363       .  A
C1185      C1256   1.514       .  S
C1185      N1186   1.388       .  A
C1187      N1188   1.383   1_545  A
C1187      N1192   1.340       .  A
N1188      C1189   1.389   1_565  A
C1189      N1190   1.355       .  A
N1190      C1191   1.347       .  A
C1191      N1192   1.341       .  A
C1193      N1194   1.386       .  A
C1193      N1198   1.323       .  A
N1194      C1195   1.408       .  A
C1195      N1196   1.372   1_556  A
N1196      C1197   1.347       .  A
C1197      N1198   1.331   1_554  A
O1199      C1209   1.267       .  A
O1201      C1211   1.291       .  A
O1202      C1212   1.283       .  A
O1202     Ni1207   1.923       .  S
O1203      C1212   1.290   1_556  A
O1203     Ni1208   1.969       .  S
O1204      C1211   1.293       .  A
O1205      C1210   1.287       .  A
O1205     Ni1208   1.897       .  S
Ni1207    Ni1208   2.386   1_554  S
C1209      C1215   1.449       .  S
C1210      C1229   1.460       .  S
C1211      C1237   1.535       .  S
C1212      C1219   1.493   1_554  S
C1213      N1214   1.369       .  A
C1213      N1218   1.399       .  A
N1214      C1215   1.359       .  A
C1215      N1216   1.326       .  A
N1216      C1217   1.329       .  A
C1217      C1252   1.516       .  S
C1217      N1218   1.395       .  A
C1219      N1220   1.383   1_556  A
C1219      N1224   1.341       .  A
N1220      C1221   1.391       .  A
C1221      N1222   1.357   1_554  A
N1222      C1223   1.350       .  A
C1223      N1224   1.342       .  A
C1225      N1226   1.394       .  A
N1226      C1227   1.389       .  A
C1227      C1243   1.502       .  S
C1227      N1228   1.325       .  A
N1228      C1229   1.327       .  A
C1231      N1232   1.382       .  A
C1231      N1236   1.359       .  A
N1232      C1233   1.389       .  A
C1233      N1234   1.344       .  A
N1234      C1235   1.335       .  A
C1235      N1236   1.352       .  A
C1237      N1238   1.396   1_556  A
C1237      N1242   1.373       .  A
N1238      C1239   1.393   1_554  A
C1239      N1240   1.330       .  A
N1240      C1241   1.328       .  A
C1241      N1242   1.362       .  A
C1243      C1244   1.378       .  A
C1243      C1248   1.433       .  A
C1244      C1245   1.410       .  A
C1244      H1249   1.082       .  S
C1245      C1246   1.429       .  A
C1245      C1254   1.479       .  S
C1246      C1247   1.389       .  A
C1246      H1250   1.079       .  S
C1247      C1248   1.424       .  A
C1252      C1253   1.384       .  A
C1252      C1257   1.440       .  A
C1253      C1254   1.421       .  A
C1253      H1258   1.080       .  S
C1254      C1255   1.409       .  A
C1255      C1256   1.386       .  A
C1255      H1259   1.081       .  S
C1256      C1257   1.419       .  A
C1257      H1260   1.081       .  S
C1261      C1472   1.387       .  A
C1261      C1266   1.430       .  A
C1261      C1449   1.502       .  S
C1262      C1471   1.379       .  A
C1262      C1263   1.422       .  A
C1262      H1267   1.079       .  S
C1263      C1264   1.422       .  A
C1263      C1272   1.486       .  S
C1264      C1475   1.391       .  A
C1264      H1268   1.078       .  S
C1265      C1474   1.382       .  A
C1265      C1266   1.415       .  A
C1265      C1431   1.509       .  S
C1266      H1269   1.083       .  S
C1270      C1271   1.386       .  A
C1270      C1275   1.432       .  A
C1270      C1321   1.498       .  S
C1271      C1482   1.412       .  A
C1271      H1486   1.077       .  S
C1272      C1481   1.417       .  A
C1272      C1483   1.418       .  A
C1273      C1482   1.411       .  A
C1273      C1274   1.386       .  A
C1273      H1277   1.078       .  S
C1274      C1275   1.414       .  A
C1274      C1405   1.506       .  S
C1275      H1278   1.083       .  S
H1276      C1481   1.081       .  S
C1279      C1280   1.427       .  A
C1279      C1284   1.378       .  A
C1279      C1443   1.514       .  S
C1280      C1281   1.439       .  A
C1280      H1285   1.082       .  S
C1281      C1282   1.392       .  A
C1281      C1315   1.516       .  S
C1282      C1283   1.415       .  A
C1282      H1286   1.081       .  S
C1283      C1284   1.414       .  A
C1283      C1290   1.479       .  S
C1284      H1287   1.080       .  S
C1288      C1289   1.385       .  A
C1288      C1293   1.423       .  A
C1288      C1345   1.517       .  S
C1289      C1290   1.416       .  A
C1289      H1294   1.082       .  S
C1290      C1291   1.409       .  A
C1291      C1292   1.386       .  A
C1291      H1295   1.081       .  S
C1292      C1293   1.438       .  A
C1292      C1399   1.505       .  S
C1293      H1296   1.082       .  S
O1297      C1307   1.288       .  A
O1297     Ni1515   1.974       .  S
O1298      C1308   1.290       .  A
O1298     Ni1305   1.977   1_554  S
O1299      C1519   1.289       .  A
O1299     Ni1515   1.914       .  S
O1300      C1310   1.280       .  A
O1301      C1310   1.271       .  A
O1302      C1309   1.274       .  A
O1302     Ni1306   1.874       .  S
O1303      C1308   1.294       .  A
O1303     Ni1306   1.968   1_554  S
O1304      C1307   1.290       .  A
O1304     Ni1516   1.934       .  S
Ni1305     O1507   1.972       .  S
Ni1305     O1509   1.914       .  S
Ni1305    Ni1306   2.383       .  S
Ni1306     O1514   1.941       .  S
C1307      C1441   1.506       .  S
C1308      C1311   1.538       .  S
C1309      C1529   1.447       .  S
C1309      O1509   1.280       .  A
C1310      C1661   1.445       .  S
C1311      N1312   1.373       .  A
C1311      N1316   1.394       .  A
N1312      C1313   1.366       .  A
C1313      C1374   1.465       .  S
C1313      N1314   1.338       .  A
N1314      C1315   1.337       .  A
C1315      N1316   1.391       .  A
C1317      C1390   1.531       .  S
C1317      N1318   1.382       .  A
C1317      N1322   1.386       .  A
N1318      C1319   1.367       .  A
C1319      C1519   1.473       .  S
C1319      N1320   1.330       .  A
N1320      C1321   1.334       .  A
C1321      N1322   1.386       .  A
O1323      C1333   1.280       .  A
O1323     Ni1331   1.887       .  S
O1324      C1334   1.276       .  A
O1325      C1335   1.287       .  A
O1327      C1336   1.297       .  A
O1327     Ni1332   1.999       .  S
O1329      C1334   1.275       .  A
O1330      C1333   1.275       .  A
O1330     Ni1332   1.899       .  S
Ni1331    Ni1332   2.383       .  S
C1333      C1347   1.446       .  S
C1334      C1445   1.434       .  S
C1335      C1435   1.536       .  S
C1336      C1337   1.532       .  S
C1337      N1342   1.395       .  A
C1339      C1388   1.459       .  S
C1339      N1340   1.324       .  A
N1340      C1341   1.328       .  A
C1341      C1457   1.505       .  S
C1341      N1342   1.391       .  A
C1343      C1359   1.498       .  S
C1343      N1344   1.385       .  A
C1343      N1348   1.338       .  A
N1344      C1345   1.392       .  A
C1345      N1346   1.357       .  A
N1346      C1347   1.353       .  A
C1347      N1348   1.342       .  A
O1349      C1359   1.288       .  A
O1349     Ni1567   1.965       .  S
O1350      C1360   1.290       .  A
O1350     Ni1357   1.975   1_554  S
O1351      C1571   1.282       .  A
O1352      C1362   1.283       .  A
O1352     Ni1357   1.904       .  S
O1353      C1362   1.275       .  A
O1353     Ni1358   1.911       .  S
O1354      C1361   1.265       .  A
O1355      C1360   1.290       .  A
O1355     Ni1358   1.947   1_554  S
O1356      C1359   1.287       .  A
O1356     Ni1568   1.936       .  S
Ni1357     O1559   1.963       .  S
Ni1357    Ni1358   2.385       .  S
Ni1358     O1566   1.929       .  S
C1360      C1397   1.524       .  S
C1361      C1643   1.458       .  S
C1361      O1561   1.293       .  A
C1362      C1617   1.459       .  S
O1363      C1373   1.269       .  A
O1363     Ni1371   1.891       .  S
O1364      C1374   1.274       .  A
O1365      C1375   1.286       .  A
O1365     Ni1371   1.934       .  S
O1366      C1376   1.286       .  A
O1367      C1376   1.286       .  A
O1369      C1374   1.287       .  A
O1370      C1373   1.286       .  A
O1370     Ni1372   1.910       .  S
Ni1371    Ni1372   2.382       .  S
C1373      C1401   1.451       .  S
C1375      C1391   1.533       .  S
C1376      C1423   1.488       .  S
O1378      C1388   1.270       .  A
O1378     Ni1385   1.904       .  S
O1379      C1389   1.282       .  A
O1379     Ni1385   1.914       .  S
O1380      C1390   1.277       .  A
O1381      C1390   1.304       .  A
O1382      C1389   1.288       .  A
O1382     Ni1386   1.965       .  S
O1384      C1387   1.288       .  A
O1384     Ni1596   1.910       .  S
Ni1385    Ni1386   2.385       .  S
Ni1386     O1594   1.924       .  S
C1387      C1393   1.455       .  S
C1389      C1403   1.485       .  S
C1391      N1392   1.373       .  A
C1391      N1396   1.397       .  A
N1392      C1393   1.359       .  A
C1393      N1394   1.326       .  A
N1394      C1395   1.330       .  A
C1395      C1466   1.514       .  S
C1395      N1396   1.394       .  A
C1397      N1398   1.389       .  A
C1397      N1402   1.367       .  A
N1398      C1399   1.389       .  A
C1399      N1400   1.336       .  A
N1400      C1401   1.334       .  A
C1401      N1402   1.360       .  A
C1403      N1404   1.376       .  A
C1403      N1408   1.339       .  A
N1404      C1405   1.385       .  A
C1405      N1406   1.361       .  A
N1406      C1407   1.354       .  A
C1407      C1572   1.451       .  S
C1407      N1408   1.343       .  A
O1409      C1419   1.281       .  A
O1409     Ni1627   1.892       .  S
O1411      C1421   1.289       .  A
O1412      C1422   1.285       .  A
O1412     Ni1417   1.911       .  S
O1413      C1422   1.293       .  A
O1413     Ni1418   1.999       .  S
O1414      C1421   1.292       .  A
O1415      C1420   1.275       .  A
O1415     Ni1418   1.920       .  S
Ni1417     O1619   1.921       .  S
Ni1417    Ni1418   2.381       .  S
C1419      C1425   1.451       .  S
C1420      C1439   1.455       .  S
C1421      C1447   1.528       .  S
C1422      C1429   1.518       .  S
C1423      N1424   1.336       .  A
C1423      N1428   1.379       .  A
N1424      C1425   1.340       .  A
C1425      N1426   1.355       .  A
N1426      C1427   1.362       .  A
C1427      C1462   1.513       .  S
C1427      N1428   1.389       .  A
C1429      N1430   1.386       .  A
C1429      N1434   1.328       .  A
N1430      C1431   1.407       .  A
C1431      N1432   1.369       .  A
N1432      C1433   1.343       .  A
C1433      C1571   1.449       .  S
C1433      N1434   1.333       .  A
C1435      N1436   1.392       .  A
N1436      C1437   1.405       .  A
C1437      C1453   1.525       .  S
C1437      N1438   1.364       .  A
N1438      C1439   1.346       .  A
C1441      N1442   1.388       .  A
C1441      N1446   1.330       .  A
N1442      C1443   1.401       .  A
C1443      N1444   1.356       .  A
N1444      C1445   1.347       .  A
C1445      N1446   1.336       .  A
C1447      N1448   1.392       .  A
C1447      N1452   1.376       .  A
N1448      C1449   1.387       .  A
C1449      N1450   1.331       .  A
N1450      C1451   1.328       .  A
C1451      C1520   1.460       .  S
C1451      N1452   1.364       .  A
C1453      C1454   1.390       .  A
C1453      C1458   1.420       .  A
C1454      C1455   1.431       .  A
C1454      H1459   1.078       .  S
C1455      C1456   1.412       .  A
C1455      C1464   1.481       .  S
C1456      C1457   1.379       .  A
C1456      H1460   1.081       .  S
C1457      C1458   1.433       .  A
C1462      C1463   1.386       .  A
C1462      C1467   1.418       .  A
C1463      C1464   1.410       .  A
C1463      H1468   1.080       .  S
C1464      C1465   1.422       .  A
C1465      C1466   1.384       .  A
C1465      H1469   1.079       .  S
C1466      C1467   1.439       .  A
C1467      H1470   1.081       .  S
C1471      C1476   1.409       .  A
C1471      C1659   1.505       .  S
C1472      C1473   1.416       .  A
C1472      H1477   1.079       .  S
C1473      C1474   1.422       .  A
C1473      C1482   1.482       .  S
C1474      H1478   1.076       .  S
C1475      C1476   1.424       .  A
C1475      C1641   1.507       .  S
C1476      H1479   1.080       .  S
C1480      C1481   1.385       .  A
C1480      C1485   1.420       .  A
C1480      C1531   1.514       .  S
C1483      C1484   1.388       .  A
C1483      H1487   1.077       .  S
C1484      C1485   1.432       .  A
C1484      C1615   1.511   1_554  S
C1485      H1488   1.081   1_554  S
C1489      C1490   1.419       .  A
C1489      C1494   1.381       .  A
C1489      C1653   1.506       .  S
C1490      C1491   1.433       .  A
C1490      H1495   1.083       .  S
C1491      C1492   1.383       .  A
C1491      C1525   1.496       .  S
C1492      C1493   1.407       .  A
C1492      H1496   1.080       .  S
C1493      C1494   1.419       .  A
C1493      C1500   1.472       .  S
C1494      H1497   1.079       .  S
C1498      C1499   1.382       .  A
C1498      C1503   1.423       .  A
C1498      C1555   1.508       .  S
C1499      C1500   1.407       .  A
C1499      H1504   1.082       .  S
C1500      C1501   1.411       .  A
C1501      C1502   1.382       .  A
C1501      H1505   1.079       .  S
C1502      C1503   1.435       .  A
C1502      C1609   1.503       .  S
C1503      H1506   1.082       .  S
O1507      C1517   1.286       .  A
O1508      C1518   1.290       .  A
O1508     Ni1515   1.976       .  S
O1510      C1520   1.289       .  A
O1511      C1520   1.270       .  A
O1512      C1519   1.274       .  A
O1512     Ni1516   1.919       .  S
O1513      C1518   1.291       .  A
O1513     Ni1516   1.953       .  S
O1514      C1517   1.292       .  A
Ni1515    Ni1516   2.382       .  S
C1517      C1651   1.509       .  S
C1518      C1521   1.527       .  S
C1521      N1522   1.370       .  A
C1521      N1526   1.390       .  A
N1522      C1523   1.362       .  A
C1523      C1584   1.451       .  S
C1523      N1524   1.329       .  A
N1524      C1525   1.332       .  A
C1525      N1526   1.389       .  A
C1527      C1600   1.501   1_556  S
C1527      N1528   1.340       .  A
C1527      N1532   1.385   1_556  A
N1528      C1529   1.344       .  A
C1529      N1530   1.347       .  A
N1530      C1531   1.357   1_556  A
C1531      N1532   1.393       .  A
O1533      C1543   1.279       .  A
O1533     Ni1541   1.888       .  S
O1534      C1544   1.271       .  A
O1535      C1545   1.283   1_545  A
O1537      C1546   1.290       .  A
O1537     Ni1542   1.981       .  S
O1539      C1544   1.280       .  A
O1540      C1543   1.276       .  A
O1540     Ni1542   1.895       .  S
Ni1541    Ni1542   2.383       .  S
C1543      C1557   1.443       .  S
C1544      C1655   1.439       .  S
C1545      C1645   1.547       .  S
C1546      C1547   1.506       .  S
C1547      N1552   1.384       .  A
C1549      C1598   1.455       .  S
C1549      N1550   1.353       .  A
N1550      C1551   1.364       .  A
C1551      C1667   1.519       .  S
C1551      N1552   1.396       .  A
C1553      C1569   1.492       .  S
C1553      N1554   1.382       .  A
C1553      N1558   1.342       .  A
N1554      C1555   1.389       .  A
C1555      N1556   1.353       .  A
N1556      C1557   1.349       .  A
C1557      N1558   1.344       .  A
O1559      C1569   1.288       .  A
O1560      C1570   1.290       .  A
O1560     Ni1567   1.974       .  S
O1562      C1572   1.276       .  A
O1562     Ni1567   1.909       .  S
O1563      C1572   1.279       .  A
O1563     Ni1568   1.884       .  S
O1564      C1571   1.269       .  A
O1565      C1570   1.290       .  A
O1565     Ni1568   1.953       .  S
O1566      C1569   1.285       .  A
Ni1567    Ni1568   2.383       .  S
C1570      C1607   1.526       .  S
O1573      C1583   1.268       .  A
O1573     Ni1581   1.891       .  S
O1574      C1584   1.268       .  A
O1575      C1585   1.292       .  A
O1575     Ni1581   1.934       .  S
O1576      C1586   1.290   1_545  A
O1577      C1586   1.291   1_545  A
O1579      C1584   1.289       .  A
O1580      C1583   1.288       .  A
O1580     Ni1582   1.912       .  S
Ni1581    Ni1582   2.384       .  S
C1583      C1611   1.453       .  S
C1585      C1601   1.503       .  S
C1586      C1633   1.527       .  S
O1588      C1598   1.276       .  A
O1588     Ni1595   1.862       .  S
O1589      C1599   1.283       .  A
O1589     Ni1595   1.919       .  S
O1590      C1600   1.284       .  A
O1591      C1600   1.291       .  A
O1592      C1599   1.297   1_554  A
O1592     Ni1596   2.001       .  S
O1594      C1597   1.276       .  A
Ni1595    Ni1596   2.381   1_556  S
C1597      C1603   1.451       .  S
C1599      C1613   1.525       .  S
C1601      N1602   1.321       .  A
C1601      N1606   1.382       .  A
N1602      C1603   1.332       .  A
C1603      N1604   1.355       .  A
N1604      C1605   1.372       .  A
C1605      C1676   1.518       .  S
C1605      N1606   1.402       .  A
C1607      N1608   1.389       .  A
C1607      N1612   1.370       .  A
N1608      C1609   1.388       .  A
C1609      N1610   1.333       .  A
N1610      C1611   1.332       .  A
C1611      N1612   1.363       .  A
C1613      N1614   1.391   1_556  A
C1613      N1618   1.370       .  A
N1614      C1615   1.391   1_554  A
C1615      N1616   1.339       .  A
N1616      C1617   1.334       .  A
C1617      N1618   1.356       .  A
O1619      C1629   1.275       .  A
O1621      C1631   1.286   1_556  A
O1622      C1632   1.290       .  A
O1622     Ni1627   1.955       .  S
O1623      C1632   1.289       .  A
O1623     Ni1628   1.970       .  S
O1624      C1631   1.289       .  A
O1625      C1630   1.289       .  A
O1625     Ni1628   1.920   1_556  S
Ni1627    Ni1628   2.382       .  S
C1629      C1635   1.465       .  S
C1630      C1649   1.487       .  S
C1631      C1657   1.517       .  S
C1632      C1639   1.523       .  S
C1633      N1634   1.377       .  A
C1633      N1638   1.393       .  A
N1634      C1635   1.365       .  A
C1635      N1636   1.333       .  A
N1636      C1637   1.329       .  A
C1637      C1672   1.508       .  S
C1637      N1638   1.386       .  A
C1639      N1640   1.392       .  A
C1639      N1644   1.372       .  A
N1640      C1641   1.386       .  A
C1641      N1642   1.335       .  A
N1642      C1643   1.325       .  A
C1643      N1644   1.362       .  A
C1645      N1646   1.391       .  A
N1646      C1647   1.389       .  A
C1647      C1663   1.511       .  S
C1647      N1648   1.336       .  A
N1648      C1649   1.335       .  A
C1651      N1652   1.386       .  A
C1651      N1656   1.333       .  A
N1652      C1653   1.398       .  A
C1653      N1654   1.356       .  A
N1654      C1655   1.344       .  A
C1655      N1656   1.341       .  A
C1657      N1658   1.383       .  A
C1657      N1662   1.333   1_554  A
N1658      C1659   1.402       .  A
C1659      N1660   1.365       .  A
N1660      C1661   1.339       .  A
C1661      N1662   1.331   1_554  A
C1663      C1664   1.389       .  A
C1663      C1668   1.437       .  A
C1664      C1665   1.413       .  A
C1664      H1669   1.080       .  S
C1665      C1666   1.417       .  A
C1665      C1674   1.485       .  S
C1666      C1667   1.388       .  A
C1666      H1670   1.081       .  S
C1667      C1668   1.422       .  A
C1672      C1673   1.390       .  A
C1672      C1677   1.439       .  A
C1673      C1674   1.415       .  A
C1673      H1678   1.081       .  S
C1674      C1675   1.417       .  A
C1675      C1676   1.387       .  A
C1675      H1679   1.080       .  S
C1676      C1677   1.420       .  A
C1677      H1680   1.082       .  S
