geometry optimzed in LAMMPS
_audit_creation_date              2020-11-30 
_audit_creation_method            'lammps2cif' 
_symmetry_space_group_name_H-M    'P1' 
_symmetry_Int_Tables_number       1 
_symmetry_cell_setting            triclinic 
loop_ 
_symmetry_equiv_pos_as_xyz 
  x,y,z 
_cell_length_a                    41.12836773 
_cell_length_b                    41.55462184600943 
_cell_length_c                    41.504514033799296 
_cell_angle_alpha                 89.91130365631277 
_cell_angle_beta                  90.64477674276355 
_cell_angle_gamma                 122.08202577593892 
loop_ 
_atom_site_label 
_atom_site_type_symbol 
_atom_site_fract_x 
_atom_site_fract_y 
_atom_site_fract_z 
_atom_site_charge 
In1        In  0.46462519  0.11983116  0.40543942     1.34500
C2          C  0.52844393  0.11821164  0.40857946     0.77900
O3          O  0.46035884  0.12059473  0.45874255    -0.60600
O4          O  0.42001066  0.06959743  0.43439538    -0.51500
C5          C  0.45618077  0.17815968  0.40946813     0.70600
O6          O  0.48809933  0.18092638  0.41343833    -0.46300
C7          C  0.44901643  0.11042665  0.34252240     0.75300
O8          O  0.52804980  0.14807588  0.41250782    -0.58200
O9          O  0.42813766  0.08437208  0.36231008    -0.48300
O10         O  0.49580183  0.08890650  0.40307052    -0.54600
C11         C  0.43241272  0.08692953  0.46112113     0.85400
O12         O  0.42805164  0.14484753  0.40407519    -0.56500
O13         O  0.47755464  0.13928195  0.35514205    -0.59800
In14       In  0.73336442  0.11872509  0.39984442     1.36900
C15         C  0.72244730  0.09424945  0.33890574     0.77900
O16         O  0.66913580  0.08582333  0.40420789    -0.60600
O17         O  0.70008859  0.14588692  0.40903816    -0.51500
C18         C  0.73575362  0.09101150  0.45742157     0.70600
O19         O  0.72738719  0.07143683  0.43183705    -0.46300
C20         C  0.80103514  0.18310986  0.39373137     0.75300
O21         O  0.73733443  0.08325058  0.35958654    -0.58200
O22         O  0.76985721  0.18181130  0.39612963    -0.48300
O23         O  0.71368851  0.11681725  0.34979163    -0.54600
C24         C  0.66771986  0.11518860  0.40826999     0.85400
O25         O  0.74446756  0.12458229  0.45279934    -0.56500
O26         O  0.79761719  0.15106298  0.39449986    -0.59800
In27       In  0.39454337  0.98513740  0.64258595     1.36900
C28         C  0.40132440  0.00838736  0.70386344     0.77900
O29         O  0.33094848  0.95389369  0.64732713    -0.60600
O30         O  0.35689820  0.92181557  0.64123365    -0.51500
C31         C  0.39422989  0.01594935  0.58616779     0.70600
O32         O  0.40472981  0.03481965  0.61221272    -0.46300
C33         C  0.45933566  0.98678984  0.63442548     0.75300
O34         O  0.38498305  0.01711762  0.68272442    -0.58200
O35         O  0.42711583  0.95629672  0.63731404    -0.48300
O36         O  0.41438139  0.98921967  0.69318602    -0.54600
C37         C  0.32628437  0.92145369  0.64464266     0.85400
O38         O  0.38247043  0.98137543  0.58962209    -0.56500
O39         O  0.45814068  0.01655090  0.63550383    -0.59800
In40       In  0.66764716  0.99391037  0.63952293     1.36900
C41         C  0.68354702  0.01692016  0.70094460     0.77900
O42         O  0.63615049  0.02429999  0.63249591    -0.60600
O43         O  0.60463117  0.96408451  0.63030371    -0.51500
C44         C  0.70333041  0.02549922  0.58445643     0.70600
O45         O  0.71113045  0.04437973  0.61032797    -0.46300
C46         C  0.66564515  0.92918149  0.64448933     0.75300
O47         O  0.71012144  0.02587336  0.68109452    -0.58200
O48         O  0.63631289  0.93071543  0.63891035    -0.48300
O49         O  0.65037506  0.99758468  0.68891411    -0.54600
C50         C  0.60368385  0.99394562  0.62945925     0.85400
O51         O  0.67876082  0.99067236  0.58748558    -0.56500
O52         O  0.69634366  0.96118610  0.64763896    -0.59800
In53       In  0.46075906  0.12430686  0.14100129     1.36900
C54         C  0.44685233  0.11055998  0.20375764     0.77900
O55         O  0.49190798  0.09343169  0.13948194    -0.60600
O56         O  0.52403436  0.15289108  0.13247094    -0.51500
C57         C  0.42603952  0.09016084  0.08569274     0.70600
O58         O  0.41609842  0.07268156  0.11227004    -0.46300
C59         C  0.45531073  0.18518089  0.13871251     0.75300
O60         O  0.42351846  0.08741834  0.18282889    -0.58200
O61         O  0.48643388  0.18646727  0.13532826    -0.48300
O62         O  0.47652347  0.13878293  0.19227134    -0.54600
C63         C  0.52434180  0.12277648  0.13424462     0.85400
O64         O  0.45197888  0.12473253  0.08823161    -0.56500
O65         O  0.42641282  0.15212508  0.14302927    -0.59800
In66       In  0.72863351  0.12158505  0.14133543     1.36900
C67         C  0.72099398  0.09549318  0.20153149     0.77900
O68         O  0.79264653  0.15456858  0.14772265    -0.60600
O69         O  0.76465229  0.18502921  0.14620845    -0.51500
C70         C  0.73056647  0.09470670  0.08327083     0.70600
O71         O  0.72227696  0.07486337  0.10853744    -0.46300
C72         C  0.66283218  0.11847303  0.13338834     0.75300
O73         O  0.73774100  0.08770809  0.18038445    -0.58200
O74         O  0.69522901  0.14915503  0.13410670    -0.48300
O75         O  0.70787550  0.11488239  0.19122097    -0.54600
C76         C  0.79598342  0.18653779  0.14888226     0.85400
O77         O  0.73903987  0.12814545  0.08831800    -0.56500
O78         O  0.66421368  0.08889458  0.13600133    -0.59800
In79       In  0.39431398  0.99065865  0.90348885     1.36900
C80         C  0.40288229  0.01166062  0.84170843     0.77900
O81         O  0.45839181  0.02341579  0.90902023    -0.60600
O82         O  0.42776343  0.96342341  0.91362571    -0.51500
C83         C  0.39386680  0.02344323  0.95862343     0.70600
O84         O  0.40333196  0.04122791  0.93221772    -0.46300
C85         C  0.32576741  0.92639719  0.90015757     0.75300
O86         O  0.38796072  0.02293340  0.86168352    -0.58200
O87         O  0.35665951  0.92729627  0.90436455    -0.48300
O88         O  0.41298544  0.99041842  0.85359028    -0.54600
C89         C  0.46005402  0.99421353  0.91324674     0.85400
O90         O  0.38332558  0.98904700  0.95610637    -0.56500
O91         O  0.33007512  0.95870027  0.89742073    -0.59800
In92       In  0.66480814  0.99538968  0.90001638     1.36900
C93         C  0.60055343  0.99408340  0.91053102     0.77900
O94         O  0.67813985  0.99296371  0.95213766    -0.60600
O95         O  0.70595808  0.04693753  0.93008232    -0.51500
C96         C  0.66554154  0.93226880  0.89544461     0.70600
O97         O  0.63543827  0.93253247  0.90015030    -0.46300
C98         C  0.67995426  0.01813326  0.83870795     0.75300
O99         O  0.60167802  0.96432190  0.90968814    -0.58200
O100        O  0.70655555  0.02828738  0.85936159    -0.48300
O101        O  0.63261552  0.02443217  0.90645930    -0.54600
C102        C  0.69992646  0.02828406  0.95577971     0.85400
O103        O  0.69560828  0.96477426  0.89278530    -0.56500
O104        O  0.64678862  0.99763266  0.84985632    -0.59800
In105      In  0.39293432  0.44683185  0.90481940     1.36900
C106        C  0.39696335  0.42560123  0.84501581     0.77900
O107        O  0.33139296  0.42353316  0.88966605    -0.60600
O108        O  0.36164172  0.47596022  0.91495164    -0.51500
C109        C  0.38894931  0.41104007  0.95980176     0.70600
O110        O  0.40328900  0.40718286  0.93448336    -0.46300
C111        C  0.45883527  0.51350391  0.91041449     0.75300
O112        O  0.37433092  0.40197709  0.86549410    -0.58200
O113        O  0.42707312  0.50997321  0.90384395    -0.48300
O114        O  0.41779354  0.45888181  0.85569677    -0.54600
C115        C  0.33058631  0.45096685  0.90172685     0.85400
O116        O  0.37484377  0.43122360  0.95619020    -0.56500
O117        O  0.45680370  0.48243153  0.91502640    -0.59800
In118      In  0.66432988  0.72894542  0.90264939     1.36900
C119        C  0.68423628  0.72358892  0.84251213     0.77900
O120        O  0.63175931  0.66627275  0.91156440    -0.60600
O121        O  0.60018100  0.69245918  0.90211598    -0.51500
C122        C  0.69724416  0.73172038  0.95948178     0.70600
O123        O  0.70580270  0.72197517  0.93365599    -0.46300
C124        C  0.66263554  0.79170097  0.89834128     0.75300
O125        O  0.70908607  0.74632176  0.86270277    -0.58200
O126        O  0.63342850  0.75984436  0.90501255    -0.48300
O127        O  0.65107738  0.70386054  0.85373978    -0.54600
C128        C  0.59917192  0.66204154  0.90770862     0.85400
O129        O  0.67355266  0.74182672  0.95567110    -0.56500
O130        O  0.69267842  0.79119355  0.89401904    -0.59800
In131      In  0.72275721  0.66555253  0.14475715     1.36900
C132        C  0.72479461  0.69313955  0.20408426     0.77900
O133        O  0.65877173  0.63000628  0.13672819    -0.60600
O134        O  0.68701784  0.60324041  0.15452621    -0.51500
C135        C  0.72602208  0.69541310  0.08672705     0.70600
O136        O  0.72711960  0.71207397  0.11259359    -0.46300
C137        C  0.78405546  0.66029435  0.14151335     0.75300
O138        O  0.69720051  0.68271237  0.18463362    -0.58200
O139        O  0.75038501  0.63161899  0.14411025    -0.48300
O140        O  0.75255297  0.69296390  0.19199643    -0.54600
C141        C  0.65568757  0.59959325  0.14592103     0.85400
O142        O  0.72396337  0.66447695  0.09100007    -0.56500
O143        O  0.78615301  0.69180430  0.14113451    -0.59800
In144      In  0.44862699  0.38410492  0.14691624     1.36900
C145        C  0.42540690  0.37504917  0.20796918     0.77900
O146        O  0.41658797  0.32054940  0.14307507    -0.60600
O147        O  0.47751542  0.35240445  0.14020502    -0.51500
C148        C  0.41803927  0.38214377  0.08924602     0.70600
O149        O  0.40097309  0.38045243  0.11500304    -0.46300
C150        C  0.51360956  0.45233139  0.14857449     0.75300
O151        O  0.41350709  0.38875881  0.18706747    -0.58200
O152        O  0.51263968  0.42157285  0.14821499    -0.48300
O153        O  0.44843813  0.36661824  0.19740432    -0.54600
C154        C  0.44690844  0.32002333  0.14020532     0.85400
O155        O  0.44969568  0.38487512  0.09370375    -0.56500
O156        O  0.48092547  0.44822149  0.14856247    -0.59800
In157      In  0.38642285  0.43738148  0.64665650     1.36900
C158        C  0.39064456  0.41811446  0.70758879     0.77900
O159        O  0.44927276  0.47501725  0.63705969    -0.60600
O160        O  0.41754931  0.50078620  0.64648958    -0.51500
C161        C  0.38796716  0.40362010  0.59230239     0.70600
O162        O  0.40104976  0.39987862  0.61871838    -0.46300
C163        C  0.32468436  0.44225562  0.64703843     0.75300
O164        O  0.36357546  0.39563223  0.68890270    -0.58200
O165        O  0.35831097  0.47031056  0.64331087    -0.48300
O166        O  0.41555861  0.44832264  0.69435420    -0.54600
C167        C  0.44981705  0.50548588  0.64062200     0.85400
O168        O  0.37187961  0.42212427  0.59448170    -0.56500
O169        O  0.32237604  0.41084428  0.65024766    -0.59800
In170      In  0.65493787  0.72064968  0.64531882     1.36900
C171        C  0.67630689  0.71811055  0.70571717     0.77900
O172        O  0.68611944  0.78379619  0.65068625    -0.60600
O173        O  0.62587942  0.75338411  0.64301173    -0.51500
C174        C  0.68311812  0.72121839  0.58754253     0.70600
O175        O  0.69573193  0.71485466  0.61315887    -0.46300
C176        C  0.59167431  0.65236586  0.64091931     0.75300
O177        O  0.70073964  0.73320194  0.68353146    -0.58200
O178        O  0.59142849  0.68255556  0.64305528    -0.48300
O179        O  0.64221911  0.70488329  0.69665912    -0.54600
C180        C  0.65638602  0.78524858  0.64723029     0.85400
O181        O  0.65768577  0.72876484  0.59208756    -0.56500
O182        O  0.62475039  0.65733558  0.64070652    -0.59800
In183      In  0.71474084  0.66124974  0.40081078     1.36900
C184        C  0.71432528  0.68881477  0.34194257     0.77900
O185        O  0.77899142  0.68934733  0.40365596    -0.60600
O186        O  0.74474027  0.62954826  0.39806562    -0.51500
C187        C  0.71247107  0.68811467  0.45919501     0.70600
O188        O  0.70661099  0.70064018  0.43342210    -0.46300
C189        C  0.65177151  0.59260424  0.40080033     0.75300
O190        O  0.68487380  0.66160962  0.35453671    -0.58200
O191        O  0.68401770  0.59851943  0.39279271    -0.48300
O192        O  0.74298518  0.70442387  0.36073646    -0.54600
C193        C  0.77808798  0.65858960  0.40113285     0.85400
O194        O  0.72048469  0.66325844  0.45460774    -0.56500
O195        O  0.65202532  0.62208165  0.40872647    -0.59800
In196      In  0.44866281  0.37615047  0.40617870     1.36900
C197        C  0.42412154  0.37049240  0.34530820     0.77900
O198        O  0.47851149  0.43935890  0.40363545    -0.60600
O199        O  0.51227148  0.41470201  0.40372254    -0.51500
C200        C  0.42124913  0.37569231  0.46428525     0.70600
O201        O  0.40098870  0.36833338  0.43894574    -0.46300
C202        C  0.44965413  0.31346685  0.41149070     0.75300
O203        O  0.41515234  0.38576128  0.36690048    -0.58200
O204        O  0.47974617  0.34622695  0.41195091    -0.48300
O205        O  0.44365491  0.35734213  0.35541550    -0.54600
C206        C  0.51165544  0.44469583  0.40307443     0.85400
O207        O  0.45448889  0.38264843  0.45937602    -0.56500
O208        O  0.41864236  0.31289353  0.40879294    -0.59800
In209      In  0.13766992  0.47268276  0.64432007     1.36900
C210        C  0.13268429  0.53313267  0.63636058     0.77900
O211        O  0.14146325  0.46768061  0.59126841    -0.60600
O212        O  0.08855870  0.42853292  0.61338399    -0.51500
C213        C  0.19738110  0.46479137  0.64748034     0.70600
O214        O  0.20087134  0.49655711  0.64292618    -0.46300
C215        C  0.11722844  0.45957944  0.70586775     0.75300
O216        O  0.16459232  0.53540963  0.63777372    -0.58200
O217        O  0.10099349  0.43353880  0.68479238    -0.48300
O218        O  0.10372108  0.49975906  0.63832495    -0.54600
C219        C  0.10733644  0.44034321  0.58749390     0.85400
O220        O  0.16322906  0.43735754  0.65063185    -0.56500
O221        O  0.14305660  0.49128569  0.69514977    -0.59800
In222      In  0.10679474  0.72142502  0.64131000     1.36900
C223        C  0.08032057  0.71863983  0.70092927     0.77900
O224        O  0.08143414  0.65878522  0.63499300    -0.60600
O225        O  0.14178834  0.69481070  0.64072097    -0.51500
C226        C  0.07410281  0.71808152  0.58407874     0.70600
O227        O  0.05597447  0.71042524  0.61017050    -0.46300
C228        C  0.17476828  0.78535184  0.64462355     0.75300
O229        O  0.09244061  0.74732525  0.68318856    -0.58200
O230        O  0.17020132  0.75296906  0.64739539    -0.48300
O231        O  0.07870605  0.69098748  0.68702292    -0.54600
C232        C  0.11343880  0.66138916  0.63664941     0.85400
O233        O  0.10890244  0.72930831  0.58782232    -0.56500
O234        O  0.14410972  0.78500679  0.64040391    -0.59800
In235      In  0.00928351  0.39525620  0.40146039     1.36900
C236        C  0.04202381  0.40557048  0.34349957     0.77900
O237        O  0.97832155  0.33145150  0.40231368    -0.60600
O238        O  0.94712573  0.35707855  0.38972931    -0.51500
C239        C  0.03913962  0.39884169  0.45995492     0.70600
O240        O  0.05881882  0.40795960  0.43459578    -0.46300
C241        C  0.99832172  0.45243088  0.40703497     0.75300
O242        O  0.03325238  0.42758173  0.35552970    -0.58200
O243        O  0.97102742  0.41859041  0.40216450    -0.48300
O244        O  0.03690462  0.37941756  0.36225965    -0.54600
C245        C  0.94630618  0.32668138  0.39455222     0.85400
O246        O  0.00428049  0.38675882  0.45495348    -0.56500
O247        O  0.03094745  0.45648310  0.40978436    -0.59800
In248      In  0.97496743  0.64261912  0.40017481     1.36900
C249        C  0.98835049  0.65824596  0.33757086     0.77900
O250        O  0.01070816  0.61656249  0.40066529    -0.60600
O251        O  0.95080790  0.58028878  0.40709923    -0.51500
C252        C  0.00799492  0.67726809  0.45588537     0.70600
O253        O  0.02431499  0.69037988  0.42915433    -0.46300
C254        C  0.91228483  0.64610756  0.40247811     0.75300
O255        O  0.01297811  0.67918574  0.35877310    -0.58200
O256        O  0.91119227  0.61519397  0.40459828    -0.48300
O257        O  0.95832224  0.63003765  0.34862575    -0.54600
C258        C  0.98285618  0.58317183  0.40513921     0.85400
O259        O  0.97510505  0.64755582  0.45348887    -0.56500
O260        O  0.94570809  0.67517739  0.39978296    -0.59800
In261      In  0.13394494  0.46542335  0.90639966     1.36900
C262        C  0.11685275  0.45403319  0.84385548     0.77900
O263        O  0.09926618  0.49233991  0.91010132    -0.60600
O264        O  0.16000584  0.52799123  0.91291090    -0.51500
C265        C  0.10266231  0.43111239  0.96185972     0.70600
O266        O  0.08409286  0.41950941  0.93547545    -0.46300
C267        C  0.19591410  0.46114013  0.90596141     0.75300
O268        O  0.09993783  0.42704690  0.86380242    -0.58200
O269        O  0.19680132  0.49062303  0.91494386    -0.48300
O270        O  0.14160242  0.48552183  0.85618733    -0.54600
C271        C  0.12814813  0.52578837  0.91264181     0.85400
O272        O  0.13653575  0.45892111  0.95902502    -0.56500
O273        O  0.16323790  0.43394568  0.89717769    -0.59800
In274      In  0.11101307  0.71879724  0.89806493     1.36900
C275        C  0.08157079  0.71448238  0.83874974     0.77900
O276        O  0.14821902  0.78216140  0.90026445    -0.60600
O277        O  0.17479971  0.75136931  0.89064312    -0.51500
C278        C  0.08187044  0.71855811  0.95553532     0.70600
O279        O  0.06278520  0.71172773  0.92961411    -0.46300
C280        C  0.11373508  0.65683573  0.90497032     0.75300
O281        O  0.09176852  0.74222712  0.85741329    -0.58200
O282        O  0.14305540  0.68930283  0.89975374    -0.48300
O283        O  0.08380724  0.68825607  0.85140229    -0.54600
C284        C  0.17906386  0.78342920  0.89513225     0.85400
O285        O  0.11561757  0.72671579  0.95144507    -0.56500
O286        O  0.08266831  0.65610699  0.90637715    -0.59800
In287      In  0.01105015  0.39304734  0.14684640     1.36900
C288        C  0.04107520  0.40110080  0.20637388     0.77900
O289        O  0.03638204  0.45557624  0.13858814    -0.60600
O290        O  0.97587109  0.41942858  0.14044830    -0.51500
C291        C  0.04236852  0.39381622  0.09045711     0.70600
O292        O  0.06176937  0.40506455  0.11634361    -0.46300
C293        C  0.94475246  0.32694952  0.15283995     0.75300
O294        O  0.03527228  0.37450612  0.18783406    -0.58200
O295        O  0.94798312  0.35870632  0.15614626    -0.48300
O296        O  0.03397752  0.42412952  0.19353944    -0.54600
C297        C  0.00433701  0.45293500  0.13735921     0.85400
O298        O  0.00717348  0.38054098  0.09410946    -0.56500
O299        O  0.97590726  0.32909966  0.14707397    -0.59800
In300      In  0.97900537  0.64285726  0.13608695     1.36900
C301        C  0.98482123  0.58166849  0.13278552     0.77900
O302        O  0.97868627  0.64898404  0.08273358    -0.60600
O303        O  0.02967690  0.68869785  0.10801824    -0.51500
C304        C  0.91943255  0.65092786  0.13288187     0.70600
O305        O  0.91651473  0.61924279  0.12911916    -0.46300
C306        C  0.98922700  0.65837116  0.19908118     0.75300
O307        O  0.95331790  0.57974513  0.12897509    -0.58200
O308        O  0.01542236  0.67849915  0.17912296    -0.48300
O309        O  0.01298197  0.61484936  0.13816760    -0.54600
C310        C  0.01254387  0.67720731  0.08101696     0.85400
O311        O  0.95340308  0.67882028  0.13691834    -0.56500
O312        O  0.95948159  0.63048249  0.18672820    -0.59800
C313        C  0.96293843  0.47998042  0.13242148    -0.12000
C314        C  0.00003684  0.48617259  0.13364256     0.05100
C315        C  0.03186121  0.52395497  0.13247475    -0.07200
C316        C  0.02610385  0.55434610  0.13152650    -0.08000
C317        C  0.98901200  0.54819411  0.13151363    -0.02500
C318        C  0.95719912  0.51038517  0.13126786     0.04300
N319        N  0.91877109  0.50214196  0.13087258     0.66800
H320        H  0.93814093  0.45143634  0.13294170     0.15700
H321        H  0.05089456  0.58290697  0.13126774     0.15400
N322        N  0.07032739  0.53224739  0.13286106     0.74500
O323        O  0.90045129  0.49405989  0.10450310    -0.39000
O324        O  0.90088503  0.49518371  0.15700245    -0.38900
O325        O  0.08929374  0.54215180  0.10715656    -0.39600
O326        O  0.08750935  0.53703861  0.15946826    -0.39700
C327        C  0.02593706  0.69836534  0.99123086    -0.12000
C328        C  0.06560249  0.71480061  0.98816359     0.05100
C329        C  0.08833073  0.72337165  0.01652722    -0.07200
C330        C  0.07077476  0.71263534  0.04677701    -0.08000
C331        C  0.03077216  0.69380072  0.04956071    -0.02500
C332        C  0.00848479  0.68799890  0.02145456     0.04300
N333        N  0.96790794  0.67113718  0.02307601     0.66800
H334        H  0.00801702  0.69212057  0.96993867     0.15700
H335        H  0.08845938  0.71781676  0.06805058     0.15400
N336        N  0.12916213  0.74186672  0.01500977     0.74500
O337        O  0.95455981  0.69212559  0.02642163    -0.39000
O338        O  0.94571194  0.63681082  0.01498740    -0.38900
O339        O  0.14939833  0.77654881  0.00765803    -0.39600
O340        O  0.14502749  0.72345245  0.02064922    -0.39700
C341        C  0.11212885  0.42989974  0.02086308    -0.12000
C342        C  0.08687187  0.41549174  0.99416104     0.05100
C343        C  0.04748022  0.38960394  0.99963810    -0.07200
C344        C  0.03392869  0.38104736  0.03132735    -0.08000
C345        C  0.05894891  0.39781813  0.05799699    -0.02500
C346        C  0.09864388  0.42140553  0.05244588     0.04300
N347        N  0.12556266  0.43922253  0.07841595     0.66800
H348        H  0.14250201  0.44928412  0.01738089     0.15700
H349        H  0.00347300  0.36247711  0.03497252     0.15400
N350        N  0.02049910  0.37326038  0.97354027     0.74500
O351        O  0.14422121  0.42487207  0.08832207    -0.39000
O352        O  0.13641461  0.47277143  0.08649964    -0.38900
O353        O  0.00918356  0.33998846  0.96421455    -0.39600
O354        O  0.00215175  0.38838373  0.96482284    -0.39700
C355        C  0.08809645  0.55436189  0.91028001    -0.12000
C356        C  0.12463619  0.55952565  0.91368546     0.05100
C357        C  0.15703490  0.59689706  0.91597909    -0.07200
C358        C  0.15256791  0.62790532  0.91347635    -0.08000
C359        C  0.11622703  0.62277359  0.90899220    -0.02500
C360        C  0.08362075  0.58545739  0.90798604     0.04300
N361        N  0.04590328  0.57846704  0.90338108     0.66800
H362        H  0.06281164  0.52602385  0.90854329     0.15700
H363        H  0.17790099  0.65624943  0.91488413     0.15400
N364        N  0.19482736  0.60410531  0.92052313     0.74500
O365        O  0.03193398  0.57326909  0.87526548    -0.39000
O366        O  0.02424482  0.57035157  0.92729638    -0.38900
O367        O  0.21680791  0.61340921  0.89669997    -0.39600
O368        O  0.20866557  0.60910777  0.94867149    -0.39700
C369        C  0.95945233  0.65726254  0.28501982    -0.12000
C370        C  0.99238334  0.66542642  0.30244834     0.05100
C371        C  0.02632493  0.67641195  0.28555419    -0.07200
C372        C  0.02588827  0.67639195  0.25156795    -0.08000
C373        C  0.99200976  0.66572029  0.23425723    -0.02500
C374        C  0.95909805  0.65775114  0.25138501     0.04300
N375        N  0.92501412  0.65026187  0.23490544     0.66800
H376        H  0.93341084  0.64974407  0.29765800     0.15700
H377        H  0.05139970  0.68259679  0.23876529     0.15400
N378        N  0.06034659  0.68446111  0.30236689     0.74500
O379        O  0.89624478  0.61673880  0.23341990    -0.39000
O380        O  0.92106463  0.67757706  0.22792201    -0.38900
O381        O  0.06695277  0.65835911  0.30657260    -0.39600
O382        O  0.08660499  0.71849718  0.30785713    -0.39700
C383        C  0.04675864  0.37533657  0.29334358    -0.12000
C384        C  0.05310601  0.40810060  0.30919861     0.05100
C385        C  0.06340552  0.44063842  0.29062720    -0.07200
C386        C  0.06291014  0.43852037  0.25699582    -0.08000
C387        C  0.05216908  0.40447273  0.24099916    -0.02500
C388        C  0.04622998  0.37324208  0.25950470     0.04300
N389        N  0.03635297  0.33819697  0.24454591     0.66800
H390        H  0.03922374  0.35013385  0.30713756     0.15700
H391        H  0.06865365  0.46325167  0.24329544     0.15400
N392        N  0.07228440  0.47552395  0.30534714     0.74500
O393        O  0.06259488  0.33239571  0.23751109    -0.39000
O394        O  0.00193093  0.31067389  0.24457210    -0.38900
O395        O  0.10693980  0.50110661  0.31051441    -0.39600
O396        O  0.04704576  0.48402616  0.30588898    -0.39700
C397        C  0.02607272  0.52191475  0.41108615    -0.12000
C398        C  0.99326019  0.48518979  0.40836805     0.05100
C399        C  0.95692111  0.48101610  0.40564157    -0.07200
C400        C  0.95417816  0.51322330  0.40543566    -0.08000
C401        C  0.98711551  0.54996397  0.40732498    -0.02500
C402        C  0.02338629  0.55408270  0.41037512     0.04300
N403        N  0.05793588  0.59067275  0.41254882     0.66800
H404        H  0.05422707  0.52589584  0.41316143     0.15700
H405        H  0.92611608  0.50938802  0.40297812     0.15400
N406        N  0.92254253  0.44446543  0.40220277     0.74500
O407        O  0.07243607  0.60440162  0.43986659    -0.39000
O408        O  0.07759043  0.60549526  0.38760758    -0.38900
O409        O  0.90257703  0.42804629  0.42666214    -0.39600
O410        O  0.90854433  0.43223602  0.37445196    -0.39700
C411        C  0.05573748  0.68254107  0.75173772    -0.12000
C412        C  0.07174368  0.71750319  0.73581709     0.05100
C413        C  0.08405084  0.75058911  0.75447415    -0.07200
C414        C  0.08379921  0.74855794  0.78832565    -0.08000
C415        C  0.07161423  0.71404438  0.80410405    -0.02500
C416        C  0.05556532  0.68051926  0.78539213     0.04300
N417        N  0.04051620  0.64422902  0.80005162     0.66800
H418        H  0.04515495  0.65661336  0.73802171     0.15700
H419        H  0.09586763  0.77458886  0.80217317     0.15400
N420        N  0.09985146  0.78690924  0.73970684     0.74500
O421        O  0.00499148  0.62370122  0.80526248    -0.39000
O422        O  0.06066334  0.62959500  0.80106436    -0.38900
O423        O  0.07978237  0.80155641  0.73747118    -0.39600
O424        O  0.13559760  0.80740857  0.73555592    -0.39700
C425        C  0.08051966  0.72664574  0.52446187    -0.12000
C426        C  0.05646550  0.71260075  0.55146984     0.05100
C427        C  0.01639420  0.69092247  0.54634241    -0.07200
C428        C  0.00136550  0.68153848  0.51490370    -0.08000
C429        C  0.02545271  0.69363921  0.48795192    -0.02500
C430        C  0.06540009  0.71775796  0.49294278     0.04300
N431        N  0.09121447  0.73221071  0.46647483     0.66800
H432        H  0.11121259  0.74378841  0.52773848     0.15700
H433        H  0.97071084  0.66357473  0.51169554     0.15400
N434        N  0.99044128  0.67634162  0.57269960     0.74500
O435        O  0.10036335  0.76380578  0.45444117    -0.39000
O436        O  0.11044380  0.71758529  0.45961296    -0.38900
O437        O  0.97159343  0.69131567  0.57975378    -0.39600
O438        O  0.98108909  0.64466840  0.58468806    -0.39700
C439        C  0.11319659  0.48254876  0.79300636    -0.12000
C440        C  0.10921669  0.45078114  0.80870855     0.05100
C441        C  0.10215906  0.41921594  0.79012007    -0.07200
C442        C  0.10160692  0.42105304  0.75622762    -0.08000
C443        C  0.10854558  0.45417682  0.74068155    -0.02500
C444        C  0.11284211  0.48448675  0.75946306     0.04300
N445        N  0.11769612  0.51789706  0.74477826     0.66800
H446        H  0.11784849  0.50677517  0.80695248     0.15700
H447        H  0.09867270  0.39766855  0.74209513     0.15400
N448        N  0.09956860  0.38693831  0.80502686     0.74500
O449        O  0.08850462  0.51904981  0.73732878    -0.39000
O450        O  0.15036136  0.54818157  0.74501410    -0.38900
O451        O  0.06771106  0.35579325  0.80561287    -0.39600
O452        O  0.12987923  0.38768354  0.81213239    -0.39700
C453        C  0.05035797  0.40217734  0.55148197    -0.12000
C454        C  0.09039270  0.42501589  0.55509721     0.05100
C455        C  0.11327410  0.43534162  0.52721996    -0.07200
C456        C  0.09595449  0.42480156  0.49662386    -0.08000
C457        C  0.05590715  0.40406179  0.49287666    -0.02500
C458        C  0.03300704  0.39168666  0.52082859     0.04300
N459        N  0.99206394  0.36920396  0.51865807     0.66800
H460        H  0.03227897  0.39357370  0.57244520     0.15700
H461        H  0.11408645  0.43419014  0.47567130     0.15400
N462        N  0.15422315  0.45727355  0.52935263     0.74500
O463        O  0.97504563  0.33348429  0.51976380    -0.39000
O464        O  0.97308042  0.38481414  0.52216460    -0.38900
O465        O  0.17239869  0.44056947  0.52992485    -0.39600
O466        O  0.17205263  0.49252401  0.52410976    -0.39700
C467        C  0.15496004  0.63453879  0.63628939    -0.12000
C468        C  0.11787124  0.62830450  0.63453128     0.05100
C469        C  0.08613778  0.59070534  0.63130544    -0.07200
C470        C  0.09184051  0.56037977  0.63115092    -0.08000
C471        C  0.12882838  0.56653562  0.63376814    -0.02500
C472        C  0.16069411  0.60420279  0.63563927     0.04300
N473        N  0.19907139  0.61230841  0.63718471     0.66800
H474        H  0.17971582  0.66305446  0.63829499     0.15700
H475        H  0.06704734  0.53186472  0.62935516     0.15400
N476        N  0.04782799  0.58256531  0.62841115     0.74500
O477        O  0.21668699  0.61587251  0.61143057    -0.39000
O478        O  0.21738062  0.62240865  0.66359693    -0.38900
O479        O  0.03234644  0.57677942  0.60086475    -0.39600
O480        O  0.02727192  0.57365633  0.65315108    -0.39700
C481        C  0.80818916  0.62009328  0.40084050    -0.12000
C482        C  0.81283412  0.65612291  0.40187552     0.05100
C483        C  0.85037854  0.68858580  0.40357442    -0.07200
C484        C  0.88211985  0.68454606  0.40391381    -0.08000
C485        C  0.87749890  0.64853178  0.40277695    -0.02500
C486        C  0.83990759  0.61602620  0.40132472     0.04300
N487        N  0.83317570  0.57860553  0.39972536     0.66800
H488        H  0.77983503  0.59484550  0.39956441     0.15700
H489        H  0.91047681  0.70979424  0.40507648     0.15400
N490        N  0.85702079  0.72597618  0.40475198     0.74500
O491        O  0.82468111  0.55902051  0.42504304    -0.39000
O492        O  0.82734680  0.56250017  0.37266922    -0.38900
O493        O  0.86108999  0.74180456  0.43169326    -0.39600
O494        O  0.86615392  0.74556603  0.37940420    -0.39700
C495        C  0.58099189  0.55166841  0.40440248    -0.12000
C496        C  0.61630441  0.55448141  0.40074027     0.05100
C497        C  0.61678952  0.52092154  0.39745249    -0.07200
C498        C  0.58236850  0.48556863  0.39811800    -0.08000
C499        C  0.54708020  0.48277544  0.40196874    -0.02500
C500        C  0.54659325  0.51633321  0.40506595     0.04300
N501        N  0.51161247  0.51519319  0.40963453     0.66800
H502        H  0.57996703  0.57696966  0.40694528     0.15700
H503        H  0.58339553  0.46025258  0.39574605     0.15400
N504        N  0.65191274  0.52200042  0.39421677     0.74500
O505        O  0.49970551  0.51376610  0.43780622    -0.39000
O506        O  0.49634906  0.52204720  0.38625650    -0.38900
O507        O  0.66692857  0.51660972  0.41865119    -0.39600
O508        O  0.66342997  0.52060857  0.36650540    -0.39700
C509        C  0.71424283  0.69845001  0.55075455    -0.12000
C510        C  0.69510531  0.71774817  0.55470946     0.05100
C511        C  0.68410046  0.72963456  0.52690024    -0.07200
C512        C  0.69107556  0.72082306  0.49607938    -0.08000
C513        C  0.70886671  0.70013348  0.49212294    -0.02500
C514        C  0.72088044  0.68931541  0.52002413     0.04300
N515        N  0.73881540  0.66792563  0.51777513     0.66800
H516        H  0.72268298  0.68882121  0.57168831     0.15700
H517        H  0.68162709  0.72945766  0.47513361     0.15400
N518        N  0.66508307  0.75000642  0.52949105     0.74500
O519        O  0.77487003  0.68479732  0.51998851    -0.39000
O520        O  0.71867903  0.63222650  0.52016861    -0.38900
O521        O  0.68326141  0.78391692  0.53949843    -0.39600
O522        O  0.62964257  0.73353809  0.52324485    -0.39700
C523        C  0.29857996  0.48395421  0.64740464    -0.12000
C524        C  0.29142191  0.44690863  0.64775074     0.05100
C525        C  0.25310564  0.41589820  0.64894607    -0.07200
C526        C  0.22302373  0.42243316  0.64917719    -0.08000
C527        C  0.23025174  0.45951733  0.64842651    -0.02500
C528        C  0.26860229  0.49049261  0.64793792     0.04300
N529        N  0.27782946  0.52883930  0.64863899     0.66800
H530        H  0.32771352  0.50822659  0.64696247     0.15700
H531        H  0.19385127  0.39825109  0.64966803     0.15400
N532        N  0.24406190  0.37762040  0.64964812     0.74500
O533        O  0.28487947  0.54599437  0.67529926    -0.39000
O534        O  0.28608114  0.54749214  0.62280351    -0.38900
O535        O  0.23723718  0.36060147  0.67625587    -0.39600
O536        O  0.23531421  0.35877284  0.62375804    -0.39700
C537        C  0.36904538  0.38654972  0.53472987    -0.12000
C538        C  0.39286631  0.38998778  0.56079605     0.05100
C539        C  0.42362295  0.38491309  0.55513553    -0.07200
C540        C  0.43122085  0.37873841  0.52368020    -0.08000
C541        C  0.40860423  0.37727698  0.49733113    -0.02500
C542        C  0.37649653  0.38005965  0.50327032     0.04300
N543        N  0.35240034  0.37856819  0.47752810     0.66800
H544        H  0.34532362  0.39026522  0.53856454     0.15700
H545        H  0.45574303  0.37631828  0.51981777     0.15400
N546        N  0.44921605  0.38875966  0.58055260     0.74500
O547        O  0.31999497  0.34869005  0.47291358    -0.39000
O548        O  0.36035208  0.40878637  0.46342676    -0.38900
O549        O  0.44412445  0.35946196  0.59452058    -0.39600
O550        O  0.48051288  0.42002160  0.58463395    -0.39700
C551        C  0.52062221  0.54558958  0.63497204    -0.12000
C552        C  0.48563195  0.54336699  0.63913536     0.05100
C553        C  0.48596738  0.57728593  0.64320434    -0.07200
C554        C  0.52075947  0.61227711  0.64308385    -0.08000
C555        C  0.55579362  0.61449784  0.63948535    -0.02500
C556        C  0.55551682  0.58062293  0.63538516     0.04300
N557        N  0.59028748  0.58102542  0.63222304     0.66800
H558        H  0.52109548  0.52003854  0.63205097     0.15700
H559        H  0.52024965  0.63775500  0.64644044     0.15400
N560        N  0.45146387  0.57692377  0.64826534     0.74500
O561        O  0.60556027  0.57636605  0.65686831    -0.39000
O562        O  0.60121877  0.57840458  0.60460508    -0.38900
O563        O  0.44200346  0.57917918  0.67659944    -0.39600
O564        O  0.43538708  0.58255052  0.62476975    -0.39700
C565        C  0.41060376  0.33790333  0.29282564    -0.12000
C566        C  0.41449852  0.36847052  0.31056675     0.05100
C567        C  0.41539883  0.39860502  0.29391081    -0.07200
C568        C  0.41552481  0.39900687  0.25995076    -0.08000
C569        C  0.41505355  0.36985017  0.24243945    -0.02500
C570        C  0.41092539  0.33835238  0.25920055     0.04300
N571        N  0.40826739  0.30701078  0.24239431     0.66800
H572        H  0.40929214  0.31425681  0.30518191     0.15700
H573        H  0.41899141  0.42349872  0.24742035     0.15400
N574        N  0.42030075  0.43076000  0.31094129     0.74500
O575        O  0.43796483  0.30564987  0.23895295    -0.39000
O576        O  0.37569593  0.27745850  0.23747702    -0.38900
O577        O  0.45345611  0.46001462  0.31433809    -0.39600
O578        O  0.39132884  0.43245098  0.31733981    -0.39700
C579        C  0.85494791  0.69098879  0.13793022    -0.12000
C580        C  0.81842925  0.65749672  0.13894745     0.05100
C581        C  0.81564647  0.62216975  0.13717281    -0.07200
C582        C  0.84884042  0.62094601  0.13458811    -0.08000
C583        C  0.88535631  0.65434831  0.13382271    -0.02500
C584        C  0.88822821  0.68975091  0.13543531     0.04300
N585        N  0.92453140  0.72476447  0.13430464     0.66800
H586        H  0.85782211  0.71836976  0.13912933     0.15700
H587        H  0.84588173  0.59351773  0.13355652     0.15400
N588        N  0.77939737  0.58710007  0.13790233     0.74500
O589        O  0.93618564  0.74195664  0.10784058    -0.39000
O590        O  0.94069494  0.74203770  0.16020724    -0.38900
O591        O  0.76279446  0.57097403  0.11176177    -0.39600
O592        O  0.76800424  0.56888732  0.16393737    -0.39700
C593        C  0.68717111  0.68563040  0.25336748    -0.12000
C594        C  0.72318494  0.70083436  0.23891231     0.05100
C595        C  0.75627830  0.71799073  0.25895289    -0.07200
C596        C  0.75269221  0.71713110  0.29256354    -0.08000
C597        C  0.71651771  0.69843812  0.30710115    -0.02500
C598        C  0.68352815  0.68396356  0.28707812     0.04300
N599        N  0.64597194  0.66598142  0.30042151     0.66800
H600        H  0.66142983  0.67261932  0.23857280     0.15700
H601        H  0.77838396  0.72860220  0.30729396     0.15400
N602        N  0.79376571  0.73450400  0.24578622     0.74500
O603        O  0.63129410  0.68547104  0.30574617    -0.39000
O604        O  0.62474723  0.63021723  0.30001905    -0.38900
O605        O  0.81478475  0.77013621  0.24337136    -0.39600
O606        O  0.80870324  0.71477598  0.24378318    -0.39700
C607        C  0.54900917  0.52268055  0.14213706    -0.12000
C608        C  0.55000066  0.48998113  0.14844334     0.05100
C609        C  0.58592882  0.49386181  0.15369574    -0.07200
C610        C  0.61965106  0.52975176  0.15279546    -0.08000
C611        C  0.61877156  0.56246172  0.14651420    -0.02500
C612        C  0.58290123  0.55866970  0.14097515     0.04300
N613        N  0.58016195  0.59091462  0.13436287     0.66800
H614        H  0.52189954  0.52035708  0.13781339     0.15700
H615        H  0.64669267  0.53187787  0.15699238     0.15400
N616        N  0.58889914  0.46177972  0.16040827     0.74500
O617        O  0.57552047  0.59794324  0.10567576    -0.39000
O618        O  0.57455523  0.60733796  0.15720749    -0.38900
O619        O  0.59917731  0.44819785  0.13843991    -0.39600
O620        O  0.58906119  0.45229904  0.18927535    -0.39700
C621        C  0.71628888  0.74841421  0.75547741    -0.12000
C622        C  0.68556957  0.71642963  0.73997983     0.05100
C623        C  0.66003387  0.68469280  0.75863182    -0.07200
C624        C  0.66314632  0.68667846  0.79211508    -0.08000
C625        C  0.69091795  0.72008699  0.80797949    -0.02500
C626        C  0.71921107  0.75048713  0.78940511     0.04300
N627        N  0.74915400  0.78453099  0.80440255     0.66800
H628        H  0.73641837  0.77293595  0.74137702     0.15700
H629        H  0.64176313  0.66249487  0.80588153     0.15400
N630        N  0.62935156  0.65076983  0.74398957     0.74500
O631        O  0.78096278  0.78794134  0.81054363    -0.39000
O632        O  0.74670692  0.81352749  0.80521754    -0.38900
O633        O  0.63287920  0.62263890  0.74034273    -0.39600
O634        O  0.59644755  0.64602838  0.74174585    -0.39700
C635        C  0.72610572  0.70520738  0.99539504    -0.12000
C636        C  0.71123565  0.72858524  0.99182278     0.05100
C637        C  0.70573276  0.74452602  0.01977001    -0.07200
C638        C  0.71283555  0.73505713  0.05040624    -0.08000
C639        C  0.72498627  0.70945897  0.05401561    -0.02500
C640        C  0.73269196  0.69530586  0.02600814     0.04300
N641        N  0.74620342  0.66997383  0.02804740     0.66800
H642        H  0.73069721  0.69280831  0.97442077     0.15700
H643        H  0.70717412  0.74652304  0.07144145     0.15400
N644        N  0.69200268  0.76964688  0.01763407     0.74500
O645        O  0.72231178  0.63459293  0.02740850    -0.39000
O646        O  0.78113831  0.68248358  0.02296938    -0.38900
O647        O  0.65851475  0.75856719  0.02683492    -0.39600
O648        O  0.71545543  0.80454196  0.01274951    -0.39700
C649        C  0.29405904  0.47733979  0.92451615    -0.12000
C650        C  0.29608847  0.45358839  0.90166240     0.05100
C651        C  0.26488629  0.43245375  0.88016917    -0.07200
C652        C  0.23229883  0.43491902  0.88229725    -0.08000
C653        C  0.23036618  0.45863651  0.90521047    -0.02500
C654        C  0.26160848  0.47992481  0.92652594     0.04300
N655        N  0.26004326  0.50269522  0.95149085     0.66800
H656        H  0.31744402  0.49339680  0.94151309     0.15700
H657        H  0.20875578  0.41885911  0.86543533     0.15400
N658        N  0.26642317  0.40974169  0.85514405     0.74500
O659        O  0.24613981  0.48789867  0.97841460    -0.39000
O660        O  0.27879167  0.53836673  0.94877546    -0.38900
O661        O  0.24731890  0.37405240  0.85771293    -0.39600
O662        O  0.27969548  0.42451816  0.82807770    -0.39700
C663        C  0.36358306  0.38895170  0.79501168    -0.12000
C664        C  0.39765339  0.41658133  0.81063565     0.05100
C665        C  0.43059370  0.43948829  0.79203628    -0.07200
C666        C  0.42808197  0.43706970  0.75847795    -0.08000
C667        C  0.39315208  0.41217003  0.74257668    -0.02500
C668        C  0.36106904  0.38656936  0.76115962     0.04300
N669        N  0.32506979  0.36002420  0.74623499     0.66800
H670        H  0.33807230  0.37103129  0.80894075     0.15700
H671        H  0.45339334  0.45626087  0.74478412     0.15400
N672        N  0.46665217  0.46634983  0.80681317     0.74500
O673        O  0.31527895  0.32579662  0.74321854    -0.39000
O674        O  0.30035325  0.36888177  0.74205298    -0.38900
O675        O  0.48983187  0.45627695  0.81406990    -0.39600
O676        O  0.47832039  0.50123229  0.80644790    -0.39700
C677        C  0.42371699  0.37846635  0.03020220    -0.12000
C678        C  0.40411692  0.38223809  0.05604881     0.05100
C679        C  0.37476813  0.38925004  0.04914508    -0.07200
C680        C  0.36876620  0.39664510  0.01726775    -0.08000
C681        C  0.39071841  0.39590177  0.99177961    -0.02500
C682        C  0.41706806  0.38481298  0.99839544     0.04300
N683        N  0.43928983  0.38227475  0.97347163     0.66800
H684        H  0.44550622  0.37195003  0.03469666     0.15700
H685        H  0.34765200  0.40402663  0.01262304     0.15400
N686        N  0.35150324  0.38994644  0.07409471     0.74500
O687        O  0.47243205  0.41038865  0.96783827    -0.39000
O688        O  0.42906498  0.35021324  0.96172152    -0.38900
O689        O  0.35811256  0.42137571  0.08459846    -0.39600
O690        O  0.32016672  0.35989824  0.08069319    -0.39700
C691        C  0.49415696  0.58271177  0.90030812    -0.12000
C692        C  0.49512714  0.55120098  0.91117128     0.05100
C693        C  0.53068034  0.55650660  0.92092464    -0.07200
C694        C  0.56409593  0.59284302  0.91985618    -0.08000
C695        C  0.56299975  0.62432532  0.90899878    -0.02500
C696        C  0.52750601  0.61882512  0.89885080     0.04300
N697        N  0.52485122  0.64910977  0.88557096     0.66800
H698        H  0.46748219  0.57930127  0.89211151     0.15700
H699        H  0.59096552  0.59633520  0.92752992     0.15400
N700        N  0.53355907  0.52552496  0.93199548     0.74500
O701        O  0.52574681  0.65324870  0.85539980    -0.39000
O702        O  0.51358051  0.66606798  0.90301373    -0.38900
O703        O  0.54682598  0.51123098  0.91353924    -0.39600
O704        O  0.53068974  0.51808011  0.96169082    -0.39700
C705        C  0.69641454  0.86102182  0.88837439    -0.12000
C706        C  0.66223770  0.82701440  0.89605973     0.05100
C707        C  0.62892419  0.82782505  0.90192599    -0.07200
C708        C  0.63067166  0.86232138  0.90094508    -0.08000
C709        C  0.66509545  0.89648064  0.89413327    -0.02500
C710        C  0.69811162  0.89552476  0.88729486     0.04300
N711        N  0.73364455  0.92916722  0.87924443     0.66800
H712        H  0.72214514  0.86102422  0.88342698     0.15700
H713        H  0.60495689  0.86229795  0.90603044     0.15400
N714        N  0.59313148  0.79411476  0.90933837     0.74500
O715        O  0.75917165  0.94618252  0.90076162    -0.39000
O716        O  0.74241049  0.93699040  0.85000780    -0.38900
O717        O  0.58254326  0.78703613  0.93826532    -0.39600
O718        O  0.56905996  0.77619886  0.88700354    -0.39700
C719        C  0.28680887  0.85593683  0.89556855    -0.12000
C720        C  0.28791517  0.89020081  0.89844679     0.05100
C721        C  0.25295061  0.88894628  0.89954995    -0.07200
C722        C  0.21802627  0.85398005  0.89756793    -0.08000
C723        C  0.21690302  0.81968487  0.89510299    -0.02500
C724        C  0.25187479  0.82093276  0.89403352     0.04300
N725        N  0.25264408  0.78699917  0.89233359     0.66800
H726        H  0.31316416  0.85617636  0.89472654     0.15700
H727        H  0.19168122  0.85372159  0.89877395     0.15400
N728        N  0.25216999  0.92260026  0.90421889     0.74500
O729        O  0.25800668  0.77625249  0.86558822    -0.39000
O730        O  0.25532951  0.77215717  0.91796947    -0.38900
O731        O  0.23905822  0.93369534  0.88217522    -0.39600
O732        O  0.25717118  0.93649428  0.93217760    -0.39700
C733        C  0.49523676  0.96101071  0.91974136    -0.12000
C734        C  0.49662960  0.99533818  0.91597404     0.05100
C735        C  0.53273530  0.02936062  0.91279096    -0.07200
C736        C  0.56617786  0.02831047  0.91223204    -0.08000
C737        C  0.56464990  0.99381170  0.91466450    -0.02500
C738        C  0.52869842  0.95995437  0.91912206     0.04300
N739        N  0.52533241  0.92406211  0.92235193     0.66800
H740        H  0.46808160  0.93472364  0.92243509     0.15700
H741        H  0.59325719  0.05452909  0.90895722     0.15400
N742        N  0.53610288  0.06517988  0.90894533     0.74500
O743        O  0.52676840  0.91224471  0.95003245    -0.39000
O744        O  0.51354874  0.90137500  0.89872279    -0.38900
O745        O  0.54428086  0.08669805  0.93308029    -0.39600
O746        O  0.53871776  0.07832763  0.88101835    -0.39700
C747        C  0.86722105  0.22147014  0.15278263    -0.12000
C748        C  0.83370268  0.22263750  0.15235298     0.05100
C749        C  0.83718794  0.25829107  0.15433615    -0.07200
C750        C  0.87358885  0.29166972  0.15533239    -0.08000
C751        C  0.90712164  0.29056808  0.15444726    -0.02500
C752        C  0.90363940  0.25487753  0.15383897     0.04300
N753        N  0.93664434  0.25183719  0.15430353     0.66800
H754        H  0.86530176  0.19453842  0.15178369     0.15700
H755        H  0.87548142  0.31859567  0.15614506     0.15400
N756        N  0.80420066  0.26135285  0.15507884     0.74500
O757        O  0.94753701  0.24496250  0.18054151    -0.39000
O758        O  0.94948714  0.24790363  0.12811851    -0.38900
O759        O  0.79200584  0.26479978  0.18180912    -0.39600
O760        O  0.79229519  0.26819533  0.12939497    -0.39700
C761        C  0.71826540  0.04178637  0.04638966    -0.12000
C762        C  0.72872024  0.07968502  0.05028275     0.05100
C763        C  0.73437756  0.10163043  0.02233826    -0.07200
C764        C  0.72711181  0.08484751  0.99171380    -0.08000
C765        C  0.71427141  0.04633531  0.98795897    -0.02500
C766        C  0.71118177  0.02507441  0.01568933     0.04300
N767        N  0.70041560  0.98632030  0.01324890     0.66800
H768        H  0.71443197  0.02458560  0.06731594     0.15700
H769        H  0.72992809  0.10177335  0.97084727     0.15400
N770        N  0.74591838  0.14063052  0.02448396     0.74500
O771        O  0.72614972  0.97848499  0.01361978    -0.39000
O772        O  0.66591341  0.96017411  0.01748350    -0.38900
O773        O  0.78118059  0.16606527  0.02509194    -0.39600
O774        O  0.72155305  0.14978995  0.01947439    -0.39700
C775        C  0.41720337  0.21610717  0.14081507    -0.12000
C776        C  0.45301088  0.21964697  0.13787204     0.05100
C777        C  0.48616534  0.25632309  0.13442964    -0.07200
C778        C  0.48307986  0.28817475  0.13448595    -0.08000
C779        C  0.44751941  0.28478506  0.13798396    -0.02500
C780        C  0.41417915  0.24819573  0.14077018     0.04300
N781        N  0.37716861  0.24311351  0.14392456     0.66800
H782        H  0.39128124  0.18821041  0.14330587     0.15700
H783        H  0.50915100  0.31600963  0.13225393     0.15400
N784        N  0.52346462  0.26204332  0.13148048     0.74500
O785        O  0.35877803  0.24256880  0.11917292    -0.39000
O786        O  0.36372953  0.24122102  0.17152335    -0.38900
O787        O  0.53853453  0.26805359  0.10406198    -0.39600
O788        O  0.54402104  0.26872768  0.15638739    -0.39700
C789        C  0.38181626  0.01737834  0.01766350    -0.12000
C790        C  0.39651951  0.04101417  0.99048819     0.05100
C791        C  0.41629348  0.08069001  0.99503053    -0.07200
C792        C  0.42334873  0.09584202  0.02627007    -0.08000
C793        C  0.41104114  0.07226570  0.05356045    -0.02500
C794        C  0.38867560  0.03256821  0.04894149     0.04300
N795        N  0.37412693  0.00715035  0.07563328     0.66800
H796        H  0.36596720  0.98689187  0.01478879     0.15700
H797        H  0.44006119  0.12634286  0.02910396     0.15400
N798        N  0.43151475  0.10620844  0.96844652     0.74500
O799        O  0.34115647  0.99623555  0.08608745    -0.39000
O800        O  0.39044083  0.98994302  0.08422726    -0.38900
O801        O  0.41361757  0.12100876  0.95769448    -0.39600
O802        O  0.46584797  0.11967779  0.96029246    -0.39700
C803        C  0.55712014  0.08675534  0.13436463    -0.12000
C804        C  0.55968895  0.12171917  0.13119171     0.05100
C805        C  0.59610443  0.15485836  0.12631056    -0.07200
C806        C  0.62894130  0.15274951  0.12622927    -0.08000
C807        C  0.62659332  0.11807074  0.13079741    -0.02500
C808        C  0.59002630  0.08464167  0.13420719     0.04300
N809        N  0.58563957  0.04842767  0.13856298     0.66800
H810        H  0.52960605  0.06099964  0.13775778     0.15700
H811        H  0.65645029  0.17860375  0.12311818     0.15400
N812        N  0.60060093  0.19111537  0.12190189     0.74500
O813        O  0.58579420  0.03697453  0.16670598    -0.39000
O814        O  0.57347825  0.02506794  0.11540913    -0.38900
O815        O  0.61050002  0.21358918  0.14556120    -0.39600
O816        O  0.60295290  0.20358955  0.09373441    -0.39700
C817        C  0.62859685  0.85891353  0.63944566    -0.12000
C818        C  0.66365824  0.89260266  0.64655094     0.05100
C819        C  0.69578913  0.89042116  0.65489956    -0.07200
C820        C  0.69254936  0.85515775  0.65536937    -0.08000
C821        C  0.65766108  0.82153575  0.64773661    -0.02500
C822        C  0.62529681  0.82363753  0.63999824     0.04300
N823        N  0.58900083  0.79047652  0.63198547     0.66800
H824        H  0.60357166  0.85984594  0.63307746     0.15700
H825        H  0.71761184  0.85422542  0.66158324     0.15400
N826        N  0.73196873  0.92361212  0.66301633     0.74500
O827        O  0.56480508  0.77310688  0.65387893    -0.39000
O828        O  0.57835077  0.78340830  0.60285603    -0.38900
O829        O  0.74113207  0.93234667  0.69225226    -0.39600
O830        O  0.75722411  0.93970206  0.64167109    -0.39700
C831        C  0.65855159  0.02602942  0.75140920    -0.12000
C832        C  0.68884821  0.02652447  0.73577382     0.05100
C833        C  0.71996331  0.03109366  0.75446513    -0.07200
C834        C  0.71831017  0.03137858  0.78837867    -0.08000
C835        C  0.68600792  0.02717875  0.80386138    -0.02500
C836        C  0.65684649  0.02632549  0.78491629     0.04300
N837        N  0.62439711  0.02431850  0.79929456     0.66800
H838        H  0.63487537  0.02364018  0.73749955     0.15700
H839        H  0.74107807  0.03226181  0.80253244     0.15400
N840        N  0.75178496  0.03235161  0.73963528     0.74500
O841        O  0.62539150  0.05462048  0.80512156    -0.39000
O842        O  0.59261420  0.99305822  0.79955655    -0.38900
O843        O  0.78251281  0.06396060  0.73555309    -0.39600
O844        O  0.75159393  0.00210201  0.73607811    -0.39700
C845        C  0.25570212  0.88897042  0.64993098    -0.12000
C846        C  0.28788678  0.88619031  0.64518981     0.05100
C847        C  0.28248490  0.84995055  0.64084445    -0.07200
C848        C  0.24544406  0.81758306  0.64126309    -0.08000
C849        C  0.21324630  0.82044794  0.64556158    -0.02500
C850        C  0.21865045  0.85660983  0.65007341     0.04300
N851        N  0.18703400  0.86107767  0.65554367     0.66800
H852        H  0.25916929  0.91636652  0.65352554     0.15700
H853        H  0.24190282  0.79016181  0.63758705     0.15400
N854        N  0.31406166  0.84537538  0.63538333     0.74500
O855        O  0.17801677  0.86319397  0.68406327    -0.39000
O856        O  0.17395338  0.87103875  0.63259486    -0.38900
O857        O  0.32702488  0.83515297  0.65823313    -0.39600
O858        O  0.32420395  0.84482083  0.60691057    -0.39700
C859        C  0.37873736  0.02274922  0.78971956    -0.12000
C860        C  0.40715162  0.02049185  0.80682386     0.05100
C861        C  0.43665963  0.02088368  0.78948548    -0.07200
C862        C  0.43522746  0.01954287  0.75588701    -0.08000
C863        C  0.40504146  0.01824879  0.73863278    -0.02500
C864        C  0.37751887  0.02174157  0.75574572     0.04300
N865        N  0.34650449  0.02115030  0.73932874     0.66800
H866        H  0.35596796  0.02262807  0.80266156     0.15700
H867        H  0.45733314  0.01813968  0.74322364     0.15400
N868        N  0.46799166  0.02178785  0.80570636     0.74500
O869        O  0.31505904  0.98999380  0.73544130    -0.39000
O870        O  0.34774010  0.05186789  0.73519412    -0.38900
O871        O  0.47011673  0.99258910  0.80570863    -0.39600
O872        O  0.49688465  0.05332938  0.81419661    -0.39700
C873        C  0.52997993  0.02295484  0.62572259    -0.12000
C874        C  0.49574039  0.98786477  0.63069505     0.05100
C875        C  0.49727321  0.95476136  0.63277315    -0.07200
C876        C  0.53255709  0.95743284  0.63086588    -0.08000
C877        C  0.56698078  0.99266128  0.62720454    -0.02500
C878        C  0.56536043  0.02561891  0.62393980     0.04300
N879        N  0.59922400  0.06203561  0.61886372     0.66800
H880        H  0.52946745  0.04861463  0.62360439     0.15700
H881        H  0.53300184  0.93177370  0.63342677     0.15400
N882        N  0.46356958  0.91828551  0.63811309     0.74500
O883        O  0.60823463  0.07457114  0.59055287    -0.39000
O884        O  0.61521053  0.08440718  0.64242758    -0.38900
O885        O  0.44741863  0.89568360  0.61471613    -0.39600
O886        O  0.45429434  0.90623358  0.66652657    -0.39700
C887        C  0.87231769  0.22032596  0.39919031    -0.12000
C888        C  0.83852292  0.21932328  0.39114057     0.05100
C889        C  0.84107666  0.25339909  0.38227066    -0.07200
C890        C  0.87664578  0.28756210  0.38251471    -0.08000
C891        C  0.91023483  0.28898253  0.39202133    -0.02500
C892        C  0.90794764  0.25477096  0.40007650     0.04300
N893        N  0.94100301  0.25455427  0.41070543     0.66800
H894        H  0.87093571  0.19457207  0.40615520     0.15700
H895        H  0.87767754  0.31325258  0.37594087     0.15400
N896        N  0.80783189  0.25408000  0.37320315     0.74500
O897        O  0.95013262  0.25932296  0.44022441    -0.39000
O898        O  0.95629451  0.24248621  0.39207657    -0.38900
O899        O  0.79197230  0.26345686  0.39380970    -0.39600
O900        O  0.79974518  0.25361542  0.34372558    -0.39700
C901        C  0.74355496  0.07943563  0.28741031    -0.12000
C902        C  0.71658849  0.08373198  0.30425357     0.05100
C903        C  0.68746697  0.08451097  0.28663990    -0.07200
C904        C  0.68795541  0.08489947  0.25308138    -0.08000
C905        C  0.71717349  0.08483759  0.23607018    -0.02500
C906        C  0.74414562  0.08010363  0.25340267     0.04300
N907        N  0.77430698  0.07954108  0.23722182     0.66800
H908        H  0.76606981  0.07876982  0.30054760     0.15700
H909        H  0.66627835  0.08735003  0.24027589     0.15400
N910        N  0.65823871  0.08709211  0.30250996     0.74500
O911        O  0.80470660  0.11046083  0.23049623    -0.39000
O912        O  0.77366371  0.04889932  0.23541724    -0.38900
O913        O  0.65838180  0.11750709  0.30103212    -0.39600
O914        O  0.62902005  0.05735888  0.31294586    -0.39700
C915        C  0.73472329  0.08197642  0.54893421    -0.12000
C916        C  0.71899120  0.04294170  0.55264174     0.05100
C917        C  0.71335350  0.02060842  0.52497961    -0.07200
C918        C  0.72035162  0.03701508  0.49421956    -0.08000
C919        C  0.73358007  0.07567008  0.49034668    -0.02500
C920        C  0.74187686  0.09842972  0.51832317     0.04300
N921        N  0.75537029  0.13792449  0.51625680     0.66800
H922        H  0.73930185  0.09958900  0.56980584     0.15700
H923        H  0.71452131  0.01916508  0.47325905     0.15400
N924        N  0.69981266  0.98108676  0.52768399     0.74500
O925        O  0.73141618  0.14809410  0.51502695    -0.39000
O926        O  0.79009421  0.16225133  0.52271101    -0.38900
O927        O  0.66808241  0.95644915  0.51506681    -0.39600
O928        O  0.71944698  0.97072194  0.54290172    -0.39700
C929        C  0.41882100  0.24423318  0.40158434    -0.12000
C930        C  0.45074847  0.27854876  0.41277651     0.05100
C931        C  0.48377998  0.27913602  0.42339376    -0.07200
C932        C  0.48439238  0.24591686  0.42259292    -0.08000
C933        C  0.45280795  0.21174642  0.41093912    -0.02500
C934        C  0.41971062  0.21103285  0.40025543     0.04300
N935        N  0.38754322  0.17751991  0.38652743     0.66800
H936        H  0.39355138  0.24338879  0.39283047     0.15700
H937        H  0.50997730  0.24709650  0.43092522     0.15400
N938        N  0.51708081  0.31314204  0.43513634     0.74500
O939        O  0.35846945  0.15683670  0.40352214    -0.39000
O940        O  0.38517936  0.17283434  0.35636790    -0.38900
O941        O  0.52167320  0.31938310  0.46508611    -0.39600
O942        O  0.54524214  0.33189807  0.41671788    -0.39700
C943        C  0.42450046  0.07384103  0.29036006    -0.12000
C944        C  0.44187462  0.10855758  0.30724917     0.05100
C945        C  0.45584956  0.14244775  0.28963647    -0.07200
C946        C  0.45542678  0.14158754  0.25609137    -0.08000
C947        C  0.44076921  0.10746658  0.23903104    -0.02500
C948        C  0.42378529  0.07305032  0.25633832     0.04300
N949        N  0.40839193  0.03755094  0.23999172     0.66800
H950        H  0.41339310  0.04755288  0.30347819     0.15700
H951        H  0.46739324  0.16817765  0.24322813     0.15400
N952        N  0.47079674  0.17825968  0.30544500     0.74500
O953        O  0.43022065  0.02584508  0.23320238    -0.39000
O954        O  0.37250335  0.01482824  0.23843920    -0.38900
O955        O  0.50660375  0.20152145  0.30674035    -0.39600
O956        O  0.44855298  0.18966021  0.31154766    -0.39700
C957        C  0.41749605  0.07296246  0.55164241    -0.12000
C958        C  0.39783899  0.03329179  0.55400632     0.05100
C959        C  0.38544082  0.01138491  0.52527856    -0.07200
C960        C  0.39514921  0.02937818  0.49520292    -0.08000
C961        C  0.41719091  0.06908461  0.49293551    -0.02500
C962        C  0.42719978  0.09093182  0.52160720     0.04300
N963        N  0.44791866  0.13149063  0.52083134     0.66800
H964        H  0.42677447  0.09032048  0.57320228     0.15700
H965        H  0.38678024  0.01211462  0.47361714     0.15400
N966        N  0.36406877  0.97082229  0.52605201     0.74500
O967        O  0.42970872  0.14815702  0.52119385    -0.39000
O968        O  0.48356141  0.15024280  0.52658359    -0.38900
O969        O  0.32787975  0.95282068  0.52555290    -0.39600
O970        O  0.38086906  0.95329383  0.52088870    -0.39700
C971        C  0.63365375  0.14923045  0.41441846    -0.12000
C972        C  0.63143429  0.11455022  0.41060832     0.05100
C973        C  0.59492909  0.08088997  0.40717474    -0.07200
C974        C  0.56180352  0.08266505  0.40681231    -0.08000
C975        C  0.56414847  0.11752061  0.41005484    -0.02500
C976        C  0.60065726  0.15101334  0.41419318     0.04300
N977        N  0.60507428  0.18735419  0.41751041     0.66800
H978        H  0.66116554  0.17533439  0.41705506     0.15700
H979        H  0.53425174  0.05668916  0.40383676     0.15400
N980        N  0.59083017  0.04470054  0.40366308     0.74500
O981        O  0.60800561  0.20102782  0.44528041    -0.39000
O982        O  0.61368324  0.20857960  0.39323213    -0.38900
O983        O  0.58790593  0.02570780  0.42841423    -0.39600
O984        O  0.58338340  0.02903709  0.37627984    -0.39700
loop_ 
_geom_bond_atom_site_label_1 
_geom_bond_atom_site_label_2 
_geom_bond_distance 
_geom_bond_site_symmetry_2 
_ccdc_geom_bond_type 
In1           O3   2.223       .  S
In1           O4   2.268       .  S
In1          O12   2.237       .  S
In1           O6   2.209       .  S
In1           O8   2.236       .  S
In1           O9   2.286       .  S
In1          O10   2.249       .  S
In1          O13   2.204       .  S
C2            O8   1.261       .  A
C2           O10   1.263       .  A
C2          C975   1.485       .  S
O3           C11   1.258       .  A
O4           C11   1.268       .  A
C5           O12   1.264       .  A
C5            O6   1.264       .  A
C5          C933   1.475       .  S
C7            O9   1.269       .  A
C7           O13   1.258       .  A
C7          C944   1.484       .  S
C11         C961   1.486       .  S
In14         O16   2.248       .  S
In14         O17   2.224       .  S
In14         O25   2.227       .  S
In14         O19   2.274       .  S
In14         O21   2.294       .  S
In14         O22   2.230       .  S
In14         O23   2.207       .  S
In14         O26   2.254       .  S
C15          O21   1.267       .  A
C15          O23   1.256       .  A
C15         C902   1.483       .  S
O16          C24   1.264       .  A
O17          C24   1.263       .  A
C18          O25   1.257       .  A
C18          O19   1.267       .  A
C18         C919   1.490       .  S
C20          O22   1.260       .  A
C20          O26   1.263       .  A
C20         C888   1.480       .  S
C24         C972   1.483       .  S
In27         O29   2.229       .  S
In27         O30   2.235       .  S
In27         O38   2.235       .  S
In27         O32   2.261   1_565  S
In27         O34   2.296   1_565  S
In27         O35   2.234       .  S
In27         O36   2.218       .  S
In27         O39   2.241   1_565  S
C28          O34   1.264       .  A
C28          O36   1.257   1_545  A
C28         C863   1.485       .  S
O29          C37   1.262       .  A
O30          C37   1.261       .  A
C31          O38   1.258   1_545  A
C31          O32   1.266       .  A
C31         C958   1.487       .  S
C33          O35   1.263       .  A
C33          O39   1.264   1_565  A
C33         C874   1.484       .  S
C37         C846   1.478       .  S
In40         O42   2.255   1_565  S
In40         O43   2.229       .  S
In40         O51   2.232       .  S
In40         O45   2.263   1_565  S
In40         O47   2.295   1_565  S
In40         O48   2.228       .  S
In40         O49   2.209       .  S
In40         O52   2.247       .  S
C41          O47   1.265       .  A
C41          O49   1.256   1_545  A
C41         C832   1.483       .  S
O42          C50   1.264   1_545  A
O43          C50   1.262       .  A
C44          O51   1.257   1_545  A
C44          O45   1.265       .  A
C44         C916   1.485       .  S
C46          O48   1.260       .  A
C46          O52   1.262       .  A
C46         C818   1.481       .  S
C50         C877   1.484       .  S
In53         O55   2.245       .  S
In53         O56   2.246       .  S
In53         O64   2.217       .  S
In53         O58   2.274       .  S
In53         O60   2.295       .  S
In53         O61   2.225       .  S
In53         O62   2.207       .  S
In53         O65   2.253       .  S
C54          O60   1.266       .  A
C54          O62   1.258       .  A
C54         C947   1.482       .  S
O55          C63   1.262       .  A
O56          C63   1.260       .  A
C57          O64   1.258       .  A
C57          O58   1.266       .  A
C57         C793   1.486       .  S
C59          O61   1.262       .  A
C59          O65   1.265       .  A
C59         C776   1.485       .  S
C63         C804   1.484       .  S
In66         O68   2.243       .  S
In66         O69   2.243       .  S
In66         O77   2.235       .  S
In66         O71   2.270       .  S
In66         O73   2.300       .  S
In66         O74   2.225       .  S
In66         O75   2.209       .  S
In66         O78   2.254       .  S
C67          O73   1.265       .  A
C67          O75   1.257       .  A
C67         C905   1.485       .  S
O68          C76   1.262       .  A
O69          C76   1.260       .  A
C70          O77   1.257       .  A
C70          O71   1.266       .  A
C70         C762   1.490       .  S
C72          O74   1.264       .  A
C72          O78   1.265       .  A
C72         C807   1.484       .  S
C76         C748   1.484       .  S
In79         O81   2.242   1_565  S
In79         O82   2.234       .  S
In79         O90   2.229       .  S
In79         O84   2.268   1_565  S
In79         O86   2.287   1_565  S
In79         O87   2.236       .  S
In79         O88   2.219       .  S
In79         O91   2.251       .  S
C80          O86   1.265       .  A
C80          O88   1.256   1_545  A
C80         C860   1.482       .  S
O81          C89   1.263   1_545  A
O82          C89   1.263       .  A
C83          O90   1.258   1_545  A
C83          O84   1.265       .  A
C83         C790   1.486       .  S
C85          O87   1.261       .  A
C85          O91   1.262       .  A
C85         C720   1.484       .  S
C89         C734   1.483       .  S
In92         O94   2.241       .  S
In92         O95   2.263   1_565  S
In92        O103   2.244       .  S
In92         O97   2.220       .  S
In92         O99   2.243       .  S
In92        O100   2.287   1_565  S
In92        O101   2.233   1_565  S
In92        O104   2.220       .  S
C93          O99   1.262       .  A
C93         O101   1.263   1_565  A
C93         C737   1.483       .  S
O94         C102   1.257   1_565  A
O95         C102   1.265       .  A
C96         O103   1.263       .  A
C96          O97   1.261       .  A
C96         C709   1.479       .  S
C98         O100   1.265       .  A
C98         O104   1.257   1_545  A
C98         C835   1.484       .  S
C102        C765   1.487       .  S
In105       O107   2.259       .  S
In105       O108   2.229       .  S
In105       O116   2.245       .  S
In105       O110   2.267       .  S
In105       O112   2.278       .  S
In105       O113   2.224       .  S
In105       O114   2.225       .  S
In105       O117   2.262       .  S
C106        O112   1.264       .  A
C106        O114   1.256       .  A
C106        C664   1.480       .  S
O107        C115   1.262       .  A
O108        C115   1.260       .  A
C109        O116   1.256       .  A
C109        O110   1.262       .  A
C109        C681   1.485       .  S
C111        O113   1.261       .  A
C111        O117   1.263       .  A
C111        C692   1.483       .  S
C115        C650   1.480       .  S
In118       O120   2.240       .  S
In118       O121   2.238       .  S
In118       O129   2.246       .  S
In118       O123   2.264       .  S
In118       O125   2.305       .  S
In118       O126   2.238       .  S
In118       O127   2.210       .  S
In118       O130   2.232       .  S
C119        O125   1.264       .  A
C119        O127   1.255       .  A
C119        C625   1.484       .  S
O120        C128   1.264       .  A
O121        C128   1.264       .  A
C122        O129   1.258       .  A
C122        O123   1.264       .  A
C122        C636   1.487       .  S
C124        O126   1.261       .  A
C124        O130   1.262       .  A
C124        C706   1.479       .  S
C128        C695   1.482       .  S
In131       O133   2.252       .  S
In131       O134   2.235       .  S
In131       O142   2.233       .  S
In131       O136   2.276       .  S
In131       O138   2.278       .  S
In131       O139   2.232       .  S
In131       O140   2.261       .  S
In131       O143   2.236       .  S
C132        O138   1.259       .  A
C132        O140   1.256       .  A
C132        C594   1.491       .  S
O133        C141   1.260       .  A
O134        C141   1.262       .  A
C135        O142   1.255       .  A
C135        O136   1.266       .  A
C135        C639   1.486       .  S
C137        O139   1.265       .  A
C137        O143   1.266       .  A
C137        C580   1.484       .  S
C141        C611   1.483       .  S
In144       O146   2.244       .  S
In144       O147   2.213       .  S
In144       O155   2.209       .  S
In144       O149   2.290       .  S
In144       O151   2.292       .  S
In144       O152   2.236       .  S
In144       O153   2.216       .  S
In144       O156   2.260       .  S
C145        O151   1.266       .  A
C145        O153   1.255       .  A
C145        C569   1.480       .  S
O146        C154   1.266       .  A
O147        C154   1.263       .  A
C148        O155   1.257       .  A
C148        O149   1.267       .  A
C148        C678   1.487       .  S
C150        O152   1.258       .  A
C150        O156   1.262       .  A
C150        C608   1.483       .  S
C154        C779   1.481       .  S
In157       O159   2.239       .  S
In157       O160   2.236       .  S
In157       O168   2.241       .  S
In157       O162   2.270       .  S
In157       O164   2.294       .  S
In157       O165   2.215       .  S
In157       O166   2.221       .  S
In157       O169   2.258       .  S
C158        O164   1.262       .  A
C158        O166   1.254       .  A
C158        C667   1.484       .  S
O159        C167   1.263       .  A
O160        C167   1.261       .  A
C161        O168   1.257       .  A
C161        O162   1.261       .  A
C161        C538   1.484       .  S
C163        O165   1.260       .  A
C163        O169   1.264       .  A
C163        C524   1.480       .  S
C167        C552   1.480       .  S
In170       O172   2.236       .  S
In170       O173   2.239       .  S
In170       O181   2.229       .  S
In170       O175   2.266       .  S
In170       O177   2.286       .  S
In170       O178   2.223       .  S
In170       O179   2.214       .  S
In170       O182   2.242       .  S
C171        O177   1.265       .  A
C171        O179   1.257       .  A
C171        C622   1.479       .  S
O172        C180   1.263       .  A
O173        C180   1.261       .  A
C174        O181   1.257       .  A
C174        O175   1.266       .  A
C174        C510   1.487       .  S
C176        O178   1.263       .  A
C176        O182   1.263       .  A
C176        C555   1.480       .  S
C180        C821   1.481       .  S
In183       O185   2.253       .  S
In183       O186   2.236       .  S
In183       O194   2.240       .  S
In183       O188   2.285       .  S
In183       O190   2.272       .  S
In183       O191   2.235       .  S
In183       O192   2.270       .  S
In183       O195   2.229       .  S
C184        O190   1.255       .  A
C184        O192   1.260       .  A
C184        C597   1.491       .  S
O185        C193   1.263       .  A
O186        C193   1.262       .  A
C187        O194   1.255       .  A
C187        O188   1.265       .  A
C187        C513   1.491       .  S
C189        O191   1.262       .  A
C189        O195   1.263       .  A
C189        C496   1.477       .  S
C193        C482   1.486       .  S
In196       O198   2.235       .  S
In196       O199   2.230       .  S
In196       O207   2.220       .  S
In196       O201   2.276       .  S
In196       O203   2.291       .  S
In196       O204   2.218       .  S
In196       O205   2.217       .  S
In196       O208   2.236       .  S
C197        O203   1.265       .  A
C197        O205   1.256       .  A
C197        C566   1.482       .  S
O198        C206   1.260       .  A
O199        C206   1.260       .  A
C200        O207   1.257       .  A
C200        O201   1.267       .  A
C200        C541   1.486       .  S
C202        O204   1.263       .  A
C202        O208   1.267       .  A
C202        C930   1.476       .  S
C206        C499   1.477       .  S
In209       O211   2.227       .  S
In209       O212   2.260       .  S
In209       O220   2.227       .  S
In209       O214   2.238       .  S
In209       O216   2.243       .  S
In209       O217   2.277       .  S
In209       O218   2.222       .  S
In209       O221   2.216       .  S
C210        O216   1.265       .  A
C210        O218   1.263       .  A
C210        C471   1.482       .  S
O211        C219   1.260       .  A
O212        C219   1.267       .  A
C213        O220   1.262       .  A
C213        O214   1.264       .  A
C213        C527   1.480       .  S
C215        O217   1.267       .  A
C215        O221   1.259       .  A
C215        C443   1.480       .  S
C219        C454   1.486       .  S
In222       O224   2.246       .  S
In222       O225   2.233       .  S
In222       O233   2.239       .  S
In222       O227   2.275       .  S
In222       O229   2.287       .  S
In222       O230   2.222       .  S
In222       O231   2.241       .  S
In222       O234   2.243       .  S
C223        O229   1.259       .  A
C223        O231   1.256       .  A
C223        C412   1.489       .  S
O224        C232   1.263       .  A
O225        C232   1.262       .  A
C226        O233   1.255       .  A
C226        O227   1.263       .  A
C226        C426   1.488       .  S
C228        O230   1.261       .  A
C228        O234   1.264       .  A
C228        C849   1.476       .  S
C232        C468   1.483       .  S
In235       O237   2.251   1_455  S
In235       O238   2.226   1_455  S
In235       O246   2.242       .  S
In235       O240   2.262       .  S
In235       O242   2.245       .  S
In235       O243   2.245   1_455  S
In235       O244   2.283       .  S
In235       O247   2.230       .  S
C236        O242   1.254       .  A
C236        O244   1.261       .  A
C236        C384   1.486       .  S
O237        C245   1.261       .  A
O238        C245   1.261       .  A
C239        O246   1.257       .  A
C239        O240   1.264       .  A
C239        C457   1.487       .  S
C241        O243   1.264       .  A
C241        O247   1.264   1_655  A
C241        C398   1.484       .  S
C245        C891   1.481       .  S
In248       O250   2.241   1_655  S
In248       O251   2.247       .  S
In248       O259   2.222       .  S
In248       O253   2.276   1_655  S
In248       O255   2.288   1_655  S
In248       O256   2.247       .  S
In248       O257   2.216       .  S
In248       O260   2.238       .  S
C249        O255   1.266   1_655  A
C249        O257   1.258       .  A
C249        C370   1.481       .  S
O250        C258   1.260   1_455  A
O251        C258   1.262       .  A
C252        O259   1.260   1_455  A
C252        O253   1.267       .  A
C252        C429   1.487       .  S
C254        O256   1.264       .  A
C254        O260   1.265       .  A
C254        C485   1.487       .  S
C258        C401   1.483       .  S
In261       O263   2.238       .  S
In261       O264   2.240       .  S
In261       O272   2.209       .  S
In261       O266   2.279       .  S
In261       O268   2.282       .  S
In261       O269   2.238       .  S
In261       O270   2.207       .  S
In261       O273   2.235       .  S
C262        O268   1.268       .  A
C262        O270   1.259       .  A
C262        C440   1.480       .  S
O263        C271   1.264       .  A
O264        C271   1.264       .  A
C265        O272   1.258       .  A
C265        O266   1.268       .  A
C265        C342   1.486       .  S
C267        O269   1.263       .  A
C267        O273   1.262       .  A
C267        C653   1.476       .  S
C271        C356   1.484       .  S
In274       O276   2.236       .  S
In274       O277   2.248       .  S
In274       O285   2.231       .  S
In274       O279   2.275       .  S
In274       O281   2.281       .  S
In274       O282   2.226       .  S
In274       O283   2.250       .  S
In274       O286   2.246       .  S
C275        O281   1.260       .  A
C275        O283   1.255       .  A
C275        C415   1.488       .  S
O276        C284   1.262       .  A
O277        C284   1.262       .  A
C278        O285   1.255       .  A
C278        O279   1.265       .  A
C278        C328   1.488       .  S
C280        O282   1.264       .  A
C280        O286   1.264       .  A
C280        C359   1.481       .  S
C284        C723   1.484       .  S
In287       O289   2.255       .  S
In287       O290   2.245   1_455  S
In287       O298   2.235       .  S
In287       O292   2.270       .  S
In287       O294   2.292       .  S
In287       O295   2.237   1_455  S
In287       O296   2.233       .  S
In287       O299   2.252   1_455  S
C288        O294   1.260       .  A
C288        O296   1.256       .  A
C288        C387   1.487       .  S
O289        C297   1.264       .  A
O290        C297   1.264   1_655  A
C291        O298   1.257       .  A
C291        O292   1.263       .  A
C291        C345   1.486       .  S
C293        O295   1.262       .  A
C293        O299   1.262       .  A
C293        C751   1.484       .  S
C297        C314   1.490       .  S
In300       O302   2.229       .  S
In300       O303   2.272   1_655  S
In300       O311   2.240       .  S
In300       O305   2.226       .  S
In300       O307   2.266       .  S
In300       O308   2.284   1_655  S
In300       O309   2.245   1_655  S
In300       O312   2.219       .  S
C301        O307   1.263       .  A
C301        O309   1.261   1_655  A
C301        C317   1.491       .  S
O302        C310   1.260   1_655  A
O303        C310   1.268       .  A
C304        O311   1.264       .  A
C304        O305   1.267       .  A
C304        C583   1.483       .  S
C306        O308   1.268   1_655  A
C306        O312   1.259       .  A
C306        C373   1.483       .  S
C310        C331   1.487       .  S
C313        C314   1.406   1_655  A
C313        C318   1.404       .  A
C313        H320   1.078       .  S
C314        C315   1.414       .  A
C315        C316   1.404       .  A
C315        N322   1.429       .  S
C316        C317   1.407   1_455  A
C316        H321   1.078       .  S
C317        C318   1.413       .  A
C318        N319   1.428       .  S
N319        O323   1.262       .  A
N319        O324   1.262       .  A
N322        O326   1.262       .  A
N322        O325   1.262       .  A
C327        C328   1.402       .  A
C327        C332   1.402   1_556  A
C327        H334   1.084       .  S
C328        C329   1.418   1_556  A
C329        C330   1.405       .  A
C329        N336   1.430       .  S
C330        C331   1.403       .  A
C330        H335   1.084       .  S
C331        C332   1.415       .  A
C332        N333   1.429   1_455  S
N333        O337   1.262       .  A
N333        O338   1.262       .  A
N336        O340   1.262       .  A
N336        O339   1.262       .  A
C341        C342   1.408   1_554  A
C341        C346   1.399       .  A
C341        H348   1.079       .  S
C342        C343   1.411       .  A
C343        C344   1.404   1_556  A
C343        N350   1.428       .  S
C344        C345   1.409       .  A
C344        H349   1.079       .  S
C345        C346   1.410       .  A
C346        N347   1.428       .  S
N347        O351   1.262       .  A
N347        O352   1.262       .  A
N350        O354   1.262       .  A
N350        O353   1.262       .  A
C355        C356   1.406       .  A
C355        C360   1.402       .  A
C355        H362   1.082       .  S
C356        C357   1.413       .  A
C357        C358   1.398       .  A
C357        N364   1.428       .  S
C358        C359   1.403       .  A
C358        H363   1.082       .  S
C359        C360   1.412       .  A
C360        N361   1.429       .  S
N361        O365   1.262       .  A
N361        O366   1.262       .  A
N364        O368   1.262       .  A
N364        O367   1.262       .  A
C369        C370   1.401       .  A
C369        C374   1.396       .  A
C369        H376   1.085       .  S
C370        C371   1.412   1_655  A
C371        C372   1.410       .  A
C371        N378   1.428       .  S
C372        C373   1.406   1_455  A
C372        H377   1.084       .  S
C373        C374   1.411       .  A
C374        N375   1.430       .  S
N375        O379   1.262       .  A
N375        O380   1.262       .  A
N378        O382   1.262       .  A
N378        O381   1.262       .  A
C383        C384   1.406       .  A
C383        C388   1.407       .  A
C383        H390   1.085       .  S
C384        C385   1.413       .  A
C385        C386   1.398       .  A
C385        N392   1.430       .  S
C386        C387   1.404       .  A
C386        H391   1.086       .  S
C387        C388   1.414       .  A
C388        N389   1.428       .  S
N389        O393   1.262       .  A
N389        O394   1.262       .  A
N392        O396   1.262       .  A
N392        O395   1.262       .  A
C397        C398   1.404   1_455  A
C397        C402   1.399       .  A
C397        H404   1.082       .  S
C398        C399   1.413       .  A
C399        C400   1.402       .  A
C399        N406   1.429       .  S
C400        C401   1.405       .  A
C400        H405   1.082       .  S
C401        C402   1.413   1_655  A
C402        N403   1.429       .  S
N403        O407   1.262       .  A
N403        O408   1.262       .  A
N406        O410   1.262       .  A
N406        O409   1.262       .  A
C411        C412   1.404       .  A
C411        C416   1.399       .  A
C411        H418   1.083       .  S
C412        C413   1.415       .  A
C413        C414   1.407       .  A
C413        N420   1.428       .  S
C414        C415   1.406       .  A
C414        H419   1.083       .  S
C415        C416   1.412       .  A
C416        N417   1.429       .  S
N417        O421   1.262       .  A
N417        O422   1.262       .  A
N420        O424   1.262       .  A
N420        O423   1.262       .  A
C425        C426   1.409       .  A
C425        C430   1.405       .  A
C425        H432   1.077       .  S
C426        C427   1.410       .  A
C427        C428   1.401       .  A
C427        N434   1.428   1_455  S
C428        C429   1.407       .  A
C428        H433   1.078   1_455  S
C429        C430   1.411       .  A
C430        N431   1.429       .  S
N431        O435   1.262       .  A
N431        O436   1.262       .  A
N434        O438   1.262       .  A
N434        O437   1.262       .  A
C439        C440   1.402       .  A
C439        C444   1.395       .  A
C439        H446   1.086       .  S
C440        C441   1.412       .  A
C441        C442   1.409       .  A
C441        N448   1.428       .  S
C442        C443   1.406       .  A
C442        H447   1.086       .  S
C443        C444   1.410       .  A
C444        N445   1.430       .  S
N445        O449   1.262       .  A
N445        O450   1.262       .  A
N448        O452   1.262       .  A
N448        O451   1.262       .  A
C453        C454   1.403       .  A
C453        C458   1.403       .  A
C453        H460   1.081       .  S
C454        C455   1.415       .  A
C455        C456   1.401       .  A
C455        N462   1.429       .  S
C456        C457   1.402       .  A
C456        H461   1.081       .  S
C457        C458   1.416       .  A
C458        N459   1.429   1_455  S
N459        O463   1.262       .  A
N459        O464   1.262       .  A
N462        O466   1.262       .  A
N462        O465   1.262       .  A
C467        C468   1.406       .  A
C467        C472   1.401       .  A
C467        H474   1.079       .  S
C468        C469   1.412       .  A
C469        C470   1.399       .  A
C469        N476   1.429       .  S
C470        C471   1.405       .  A
C470        H475   1.079       .  S
C471        C472   1.412       .  A
C472        N473   1.429       .  S
N473        O477   1.262       .  A
N473        O478   1.262       .  A
N476        O480   1.262       .  A
N476        O479   1.262       .  A
C481        C482   1.406       .  A
C481        C486   1.402       .  A
C481        H488   1.078       .  S
C482        C483   1.412       .  A
C483        C484   1.402       .  A
C483        N490   1.428       .  S
C484        C485   1.406       .  A
C484        H489   1.078       .  S
C485        C486   1.414       .  A
C486        N487   1.429       .  S
N487        O491   1.262       .  A
N487        O492   1.262       .  A
N490        O494   1.262       .  A
N490        O493   1.262       .  A
C495        C496   1.404       .  A
C495        C500   1.397       .  A
C495        H502   1.080       .  S
C496        C497   1.412       .  A
C497        C498   1.398       .  A
C497        N504   1.429       .  S
C498        C499   1.404       .  A
C498        H503   1.080       .  S
C499        C500   1.411       .  A
C500        N501   1.429       .  S
N501        O505   1.262       .  A
N501        O506   1.262       .  A
N504        O508   1.262       .  A
N504        O507   1.262       .  A
C509        C510   1.401       .  A
C509        C514   1.402       .  A
C509        H516   1.084       .  S
C510        C511   1.416       .  A
C511        C512   1.405       .  A
C511        N518   1.430       .  S
C512        C513   1.405       .  A
C512        H517   1.084       .  S
C513        C514   1.417       .  A
C514        N515   1.429       .  S
N515        O519   1.262       .  A
N515        O520   1.262       .  A
N518        O522   1.262       .  A
N518        O521   1.262       .  A
C523        C524   1.405       .  A
C523        C528   1.397       .  A
C523        H530   1.082       .  S
C524        C525   1.411       .  A
C525        C526   1.401       .  A
C525        N532   1.429       .  S
C526        C527   1.406       .  A
C526        H531   1.081       .  S
C527        C528   1.410       .  A
C528        N529   1.429       .  S
N529        O533   1.262       .  A
N529        O534   1.262       .  A
N532        O536   1.262       .  A
N532        O535   1.262       .  A
C537        C538   1.407       .  A
C537        C542   1.403       .  A
C537        H544   1.079       .  S
C538        C539   1.411       .  A
C539        C540   1.401       .  A
C539        N546   1.429       .  S
C540        C541   1.408       .  A
C540        H545   1.079       .  S
C541        C542   1.410       .  A
C542        N543   1.428       .  S
N543        O547   1.262       .  A
N543        O548   1.262       .  A
N546        O550   1.262       .  A
N546        O549   1.262       .  A
C551        C552   1.405       .  A
C551        C556   1.400       .  A
C551        H558   1.079       .  S
C552        C553   1.413       .  A
C553        C554   1.397       .  A
C553        N560   1.429       .  S
C554        C555   1.404       .  A
C554        H559   1.079       .  S
C555        C556   1.412       .  A
C556        N557   1.429       .  S
N557        O561   1.262       .  A
N557        O562   1.262       .  A
N560        O564   1.262       .  A
N560        O563   1.262       .  A
C565        C566   1.402       .  A
C565        C570   1.396       .  A
C565        H572   1.084       .  S
C566        C567   1.413       .  A
C567        C568   1.410       .  A
C567        N574   1.428       .  S
C568        C569   1.405       .  A
C568        H573   1.083       .  S
C569        C570   1.411       .  A
C570        N571   1.430       .  S
N571        O575   1.262       .  A
N571        O576   1.261       .  A
N574        O578   1.262       .  A
N574        O577   1.262       .  A
C579        C580   1.405       .  A
C579        C584   1.402       .  A
C579        H586   1.081       .  S
C580        C581   1.413       .  A
C581        C582   1.398       .  A
C581        N588   1.428       .  S
C582        C583   1.403       .  A
C582        H587   1.081       .  S
C583        C584   1.414       .  A
C584        N585   1.429       .  S
N585        O589   1.262       .  A
N585        O590   1.262       .  A
N588        O592   1.262       .  A
N588        O591   1.262       .  A
C593        C594   1.406       .  A
C593        C598   1.407       .  A
C593        H600   1.081       .  S
C594        C595   1.414       .  A
C595        C596   1.403       .  A
C595        N602   1.428       .  S
C596        C597   1.404       .  A
C596        H601   1.081       .  S
C597        C598   1.415       .  A
C598        N599   1.429       .  S
N599        O603   1.262       .  A
N599        O604   1.262       .  A
N602        O606   1.262       .  A
N602        O605   1.262       .  A
C607        C608   1.405       .  A
C607        C612   1.403       .  A
C607        H614   1.080       .  S
C608        C609   1.413       .  A
C609        C610   1.397       .  A
C609        N616   1.429       .  S
C610        C611   1.403       .  A
C610        H615   1.080       .  S
C611        C612   1.414       .  A
C612        N613   1.429       .  S
N613        O617   1.262       .  A
N613        O618   1.262       .  A
N616        O620   1.262       .  A
N616        O619   1.262       .  A
C621        C622   1.406       .  A
C621        C626   1.411       .  A
C621        H628   1.086       .  S
C622        C623   1.409       .  A
C623        C624   1.393       .  A
C623        N630   1.430       .  S
C624        C625   1.402       .  A
C624        H629   1.087       .  S
C625        C626   1.414       .  A
C626        N627   1.428       .  S
N627        O631   1.262       .  A
N627        O632   1.262       .  A
N630        O634   1.262       .  A
N630        O633   1.262       .  A
C635        C636   1.403       .  A
C635        C640   1.402   1_556  A
C635        H642   1.080       .  S
C636        C637   1.415   1_556  A
C637        C638   1.403       .  A
C637        N644   1.429       .  S
C638        C639   1.402       .  A
C638        H643   1.080       .  S
C639        C640   1.416       .  A
C640        N641   1.430       .  S
N641        O645   1.262       .  A
N641        O646   1.262       .  A
N644        O648   1.262       .  A
N644        O647   1.262       .  A
C649        C650   1.405       .  A
C649        C654   1.398       .  A
C649        H656   1.083       .  S
C650        C651   1.412       .  A
C651        C652   1.401       .  A
C651        N658   1.429       .  S
C652        C653   1.404       .  A
C652        H657   1.083       .  S
C653        C654   1.409       .  A
C654        N655   1.429       .  S
N655        O659   1.262       .  A
N655        O660   1.262       .  A
N658        O662   1.262       .  A
N658        O661   1.262       .  A
C663        C664   1.405       .  A
C663        C668   1.407       .  A
C663        H670   1.083       .  S
C664        C665   1.410       .  A
C665        C666   1.395       .  A
C665        N672   1.430       .  S
C666        C667   1.404       .  A
C666        H671   1.083       .  S
C667        C668   1.413       .  A
C668        N669   1.428       .  S
N669        O673   1.262       .  A
N669        O674   1.262       .  A
N672        O676   1.262       .  A
N672        O675   1.262       .  A
C677        C678   1.407       .  A
C677        C682   1.398   1_554  A
C677        H684   1.079       .  S
C678        C679   1.411       .  A
C679        C680   1.406       .  A
C679        N686   1.428       .  S
C680        C681   1.409   1_554  A
C680        H685   1.079       .  S
C681        C682   1.409       .  A
C682        N683   1.428       .  S
N683        O687   1.262       .  A
N683        O688   1.262       .  A
N686        O690   1.262       .  A
N686        O689   1.262       .  A
C691        C692   1.405       .  A
C691        C696   1.397       .  A
C691        H698   1.080       .  S
C692        C693   1.412       .  A
C693        C694   1.403       .  A
C693        N700   1.429       .  S
C694        C695   1.406       .  A
C694        H699   1.080       .  S
C695        C696   1.412       .  A
C696        N697   1.429       .  S
N697        O701   1.262       .  A
N697        O702   1.262       .  A
N700        O704   1.262       .  A
N700        O703   1.262       .  A
C705        C706   1.405       .  A
C705        C710   1.399       .  A
C705        H712   1.080       .  S
C706        C707   1.412       .  A
C707        C708   1.397       .  A
C707        N714   1.429       .  S
C708        C709   1.404       .  A
C708        H713   1.080       .  S
C709        C710   1.411       .  A
C710        N711   1.429       .  S
N711        O715   1.262       .  A
N711        O716   1.262       .  A
N714        O718   1.262       .  A
N714        O717   1.262       .  A
C719        C720   1.405       .  A
C719        C724   1.401       .  A
C719        H726   1.080       .  S
C720        C721   1.412       .  A
C721        C722   1.401       .  A
C721        N728   1.429       .  S
C722        C723   1.405       .  A
C722        H727   1.080       .  S
C723        C724   1.413       .  A
C724        N725   1.429       .  S
N725        O729   1.262       .  A
N725        O730   1.262       .  A
N728        O732   1.262       .  A
N728        O731   1.262       .  A
C733        C734   1.405       .  A
C733        C738   1.401       .  A
C733        H740   1.077       .  S
C734        C735   1.412   1_565  A
C735        C736   1.400       .  A
C735        N742   1.429       .  S
C736        C737   1.405   1_545  A
C736        H741   1.077       .  S
C737        C738   1.413       .  A
C738        N739   1.429       .  S
N739        O743   1.262       .  A
N739        O744   1.262       .  A
N742        O746   1.262       .  A
N742        O745   1.262       .  A
C747        C748   1.405       .  A
C747        C752   1.401       .  A
C747        H754   1.080       .  S
C748        C749   1.413       .  A
C749        C750   1.400       .  A
C749        N756   1.429       .  S
C750        C751   1.405       .  A
C750        H755   1.080       .  S
C751        C752   1.412       .  A
C752        N753   1.428       .  S
N753        O757   1.262       .  A
N753        O758   1.262       .  A
N756        O760   1.262       .  A
N756        O759   1.262       .  A
C761        C762   1.404       .  A
C761        C766   1.404       .  A
C761        H768   1.082       .  S
C762        C763   1.417       .  A
C763        C764   1.401   1_554  A
C763        N770   1.429       .  S
C764        C765   1.402       .  A
C764        H769   1.083       .  S
C765        C766   1.415   1_556  A
C766        N767   1.429   1_545  S
N767        O771   1.262       .  A
N767        O772   1.262       .  A
N770        O774   1.262       .  A
N770        O773   1.262       .  A
C775        C776   1.407       .  A
C775        C780   1.403       .  A
C775        H782   1.086       .  S
C776        C777   1.414       .  A
C777        C778   1.395       .  A
C777        N784   1.429       .  S
C778        C779   1.402       .  A
C778        H783   1.087       .  S
C779        C780   1.412       .  A
C780        N781   1.429       .  S
N781        O785   1.262       .  A
N781        O786   1.262       .  A
N784        O788   1.262       .  A
N784        O787   1.262       .  A
C789        C790   1.408   1_554  A
C789        C794   1.403       .  A
C789        H796   1.080   1_545  S
C790        C791   1.410       .  A
C791        C792   1.401   1_556  A
C791        N798   1.428       .  S
C792        C793   1.408       .  A
C792        H797   1.080       .  S
C793        C794   1.410       .  A
C794        N795   1.429       .  S
N795        O799   1.262   1_545  A
N795        O800   1.262   1_545  A
N798        O802   1.262       .  A
N798        O801   1.262       .  A
C803        C804   1.406       .  A
C803        C808   1.402       .  A
C803        H810   1.078       .  S
C804        C805   1.413       .  A
C805        C806   1.399       .  A
C805        N812   1.429       .  S
C806        C807   1.405       .  A
C806        H811   1.078       .  S
C807        C808   1.413       .  A
C808        N809   1.429       .  S
N809        O813   1.262       .  A
N809        O814   1.262       .  A
N812        O816   1.262       .  A
N812        O815   1.262       .  A
C817        C818   1.405       .  A
C817        C822   1.399       .  A
C817        H824   1.080       .  S
C818        C819   1.411       .  A
C819        C820   1.399       .  A
C819        N826   1.428       .  S
C820        C821   1.405       .  A
C820        H825   1.080       .  S
C821        C822   1.413       .  A
C822        N823   1.429       .  S
N823        O827   1.262       .  A
N823        O828   1.262       .  A
N826        O830   1.262       .  A
N826        O829   1.262       .  A
C831        C832   1.402       .  A
C831        C836   1.394       .  A
C831        H838   1.085       .  S
C832        C833   1.413       .  A
C833        C834   1.410       .  A
C833        N840   1.428       .  S
C834        C835   1.407       .  A
C834        H839   1.084       .  S
C835        C836   1.411       .  A
C836        N837   1.430       .  S
N837        O841   1.262       .  A
N837        O842   1.262   1_545  A
N840        O844   1.262       .  A
N840        O843   1.262       .  A
C845        C846   1.405       .  A
C845        C850   1.398       .  A
C845        H852   1.080       .  S
C846        C847   1.412       .  A
C847        C848   1.398       .  A
C847        N854   1.429       .  S
C848        C849   1.404       .  A
C848        H853   1.080       .  S
C849        C850   1.410       .  A
C850        N851   1.428       .  S
N851        O855   1.261       .  A
N851        O856   1.262       .  A
N854        O858   1.262       .  A
N854        O857   1.262       .  A
C859        C860   1.406       .  A
C859        C864   1.410       .  A
C859        H866   1.083       .  S
C860        C861   1.411       .  A
C861        C862   1.395       .  A
C861        N868   1.430       .  S
C862        C863   1.402       .  A
C862        H867   1.083       .  S
C863        C864   1.414       .  A
C864        N865   1.428       .  S
N865        O869   1.262   1_545  A
N865        O870   1.262       .  A
N868        O872   1.262       .  A
N868        O871   1.262   1_545  A
C873        C874   1.406   1_545  A
C873        C878   1.402       .  A
C873        H880   1.081       .  S
C874        C875   1.413       .  A
C875        C876   1.399       .  A
C875        N882   1.429       .  S
C876        C877   1.405       .  A
C876        H881   1.081       .  S
C877        C878   1.412   1_565  A
C878        N879   1.429       .  S
N879        O883   1.262       .  A
N879        O884   1.262       .  A
N882        O886   1.262       .  A
N882        O885   1.262       .  A
C887        C888   1.405       .  A
C887        C892   1.403       .  A
C887        H894   1.080       .  S
C888        C889   1.412       .  A
C889        C890   1.396       .  A
C889        N896   1.429       .  S
C890        C891   1.403       .  A
C890        H895   1.080       .  S
C891        C892   1.414       .  A
C892        N893   1.429       .  S
N893        O897   1.262       .  A
N893        O898   1.262       .  A
N896        O900   1.262       .  A
N896        O899   1.262       .  A
C901        C902   1.407       .  A
C901        C906   1.412       .  A
C901        H908   1.082       .  S
C902        C903   1.411       .  A
C903        C904   1.393       .  A
C903        N910   1.430       .  S
C904        C905   1.402       .  A
C904        H909   1.083       .  S
C905        C906   1.414       .  A
C906        N907   1.428       .  S
N907        O911   1.262       .  A
N907        O912   1.262       .  A
N910        O914   1.261       .  A
N910        O913   1.262       .  A
C915        C916   1.400       .  A
C915        C920   1.400       .  A
C915        H922   1.083       .  S
C916        C917   1.415       .  A
C917        C918   1.405       .  A
C917        N924   1.431   1_545  S
C918        C919   1.405       .  A
C918        H923   1.083       .  S
C919        C920   1.418       .  A
C920        N921   1.429       .  S
N921        O925   1.262       .  A
N921        O926   1.262       .  A
N924        O928   1.262       .  A
N924        O927   1.262       .  A
C929        C930   1.405       .  A
C929        C934   1.401       .  A
C929        H936   1.080       .  S
C930        C931   1.411       .  A
C931        C932   1.394       .  A
C931        N938   1.429       .  S
C932        C933   1.402       .  A
C932        H937   1.080       .  S
C933        C934   1.412       .  A
C934        N935   1.429       .  S
N935        O939   1.262       .  A
N935        O940   1.262       .  A
N938        O942   1.262       .  A
N938        O941   1.262       .  A
C943        C944   1.407       .  A
C943        C948   1.412       .  A
C943        H950   1.083       .  S
C944        C945   1.412       .  A
C945        C946   1.392       .  A
C945        N952   1.430       .  S
C946        C947   1.400       .  A
C946        H951   1.084       .  S
C947        C948   1.413       .  A
C948        N949   1.428       .  S
N949        O953   1.262       .  A
N949        O954   1.262       .  A
N952        O956   1.262       .  A
N952        O955   1.262       .  A
C957        C958   1.402       .  A
C957        C962   1.401       .  A
C957        H964   1.081       .  S
C958        C959   1.417       .  A
C959        C960   1.403       .  A
C959        N966   1.429   1_545  S
C960        C961   1.402       .  A
C960        H965   1.081       .  S
C961        C962   1.416       .  A
C962        N963   1.429       .  S
N963        O967   1.262       .  A
N963        O968   1.262       .  A
N966        O970   1.262       .  A
N966        O969   1.262       .  A
C971        C972   1.404       .  A
C971        C976   1.398       .  A
C971        H978   1.078       .  S
C972        C973   1.413       .  A
C973        C974   1.403       .  A
C973        N980   1.429       .  S
C974        C975   1.406       .  A
C974        H979   1.078       .  S
C975        C976   1.413       .  A
C976        N977   1.429       .  S
N977        O981   1.262       .  A
N977        O982   1.262       .  A
N980        O984   1.262       .  A
N980        O983   1.262       .  A
