geometry optimzed in LAMMPS
_audit_creation_date              2020-11-30 
_audit_creation_method            'lammps2cif' 
_symmetry_space_group_name_H-M    'P1' 
_symmetry_Int_Tables_number       1 
_symmetry_cell_setting            triclinic 
loop_ 
_symmetry_equiv_pos_as_xyz 
  x,y,z 
_cell_length_a                    48.02292101 
_cell_length_b                    38.14930308599056 
_cell_length_c                    26.603248318943493 
_cell_angle_alpha                 90.1098146869091 
_cell_angle_beta                  91.63373871920723 
_cell_angle_gamma                 88.88503388437542 
loop_ 
_atom_site_label 
_atom_site_type_symbol 
_atom_site_fract_x 
_atom_site_fract_y 
_atom_site_fract_z 
_atom_site_charge 
C1          C  0.71016672  0.23764821  0.47356495     0.31900
C2          C  0.71201272  0.23165904  0.07524789     0.31900
C3          C  0.72915565  0.26722379  0.49193785    -0.04300
C4          C  0.68414651  0.24415168  0.50467899    -0.05000
C5          C  0.72348189  0.20479399  0.49987184    -0.04900
C6          C  0.72093400  0.26341770  0.04388408    -0.04300
C7          C  0.68229393  0.22452371  0.05303671    -0.05000
C8          C  0.72927803  0.20132390  0.05194732    -0.04900
C9          C  0.73176196  0.29629720  0.05271872    -0.30300
N10         N  0.73548396  0.31228025  0.00753266     0.16200
C11         C  0.73306095  0.30017664  0.47274581    -0.30300
H12         H  0.72809613  0.30861772  0.43474041     0.18100
C13         C  0.65526013  0.22043067  0.06922080    -0.29300
N14         N  0.64281621  0.25258661  0.53860646     0.14900
C15         C  0.65607233  0.24768868  0.49451111    -0.29300
C16         C  0.74310919  0.17141461  0.06935317    -0.29600
N17         N  0.74886727  0.15018806  0.02966477     0.15400
H18         H  0.74746716  0.16460393  0.10816195     0.18000
C19         C  0.73166965  0.17077815  0.48789704    -0.29600
H20         H  0.72947520  0.15839587  0.45160035     0.18000
H21         H  0.64614588  0.24674914  0.45755486     0.18000
H22         H  0.73689073  0.30723248  0.08926575     0.18100
H23         H  0.64830815  0.22038105  0.10741507     0.18000
C24         C  0.70186417  0.23666453  0.22311226     0.31900
C25         C  0.70947797  0.22560729  0.32476819     0.31900
C26         C  0.72050254  0.26299897  0.25147929    -0.04300
C27         C  0.67535658  0.23774806  0.25439999    -0.05000
C28         C  0.71493198  0.20115174  0.23879380    -0.04900
C29         C  0.72435825  0.25731311  0.30309746    -0.04300
C30         C  0.67913467  0.23184161  0.30595500    -0.05000
C31         C  0.71921438  0.19580678  0.29023432    -0.04900
C32         C  0.73980983  0.28458111  0.32205963    -0.30300
N33         N  0.74499422  0.30709140  0.28410215     0.16200
C34         C  0.73332960  0.29395855  0.24070619    -0.30300
H35         H  0.73312089  0.30624341  0.20413204     0.18100
C36         C  0.65304847  0.23236822  0.32633399    -0.29300
N37         N  0.63366519  0.23861841  0.28899190     0.14900
C38         C  0.64713825  0.24174078  0.24486367    -0.29300
C39         C  0.72999604  0.16240377  0.29640881    -0.29600
N40         N  0.73226167  0.14732753  0.25023813     0.15400
H41         H  0.73484059  0.14980772  0.33203233     0.18000
C42         C  0.72255504  0.17054104  0.21507543    -0.29600
H43         H  0.72039507  0.16509455  0.17539462     0.18000
H44         H  0.63731018  0.24582107  0.20824787     0.18000
H45         H  0.74624422  0.28829789  0.36088172     0.18100
H46         H  0.64841719  0.22816649  0.36540626     0.18000
C47         C  0.81141120  0.97922364  0.04913466     0.31900
C48         C  0.79510050  0.98082273  0.44439235     0.31900
C49         C  0.79178191  0.00705318  0.02472285    -0.04300
C50         C  0.83852707  0.98528417  0.02230595    -0.05000
C51         C  0.79102974  0.45107954  0.03813660    -0.04900
C52         C  0.77772063  0.00787526  0.47381977    -0.04300
C53         C  0.82491418  0.98844163  0.46343372    -0.05000
C54         C  0.78847589  0.45498463  0.49052082    -0.04900
C55         C  0.76769113  0.04039084  0.45930138    -0.30300
N56         N  0.77503842  0.05874808  0.99720829     0.16200
C57         C  0.78372172  0.04061984  0.03878150    -0.30300
H58         H  0.78639786  0.05191185  0.07582227     0.18100
C59         C  0.86258141  0.47148739  0.46305594    -0.29300
N60         N  0.88065237  0.47158804  0.01423832     0.14900
C61         C  0.86337018  0.47770773  0.05304769    -0.29300
C62         C  0.77378683  0.42489353  0.48403193    -0.29600
N63         N  0.76909267  0.40106946  0.02327514     0.15400
H64         H  0.77133550  0.41080932  0.44897621     0.18000
C65         C  0.77659172  0.42439986  0.05952096    -0.29600
H66         H  0.77224842  0.42170588  0.09879936     0.18000
H67         H  0.87021770  0.48341153  0.09112539     0.18000
H68         H  0.76430079  0.04924329  0.42101254     0.18100
H69         H  0.86831039  0.46997616  0.42411801     0.18000
C70         C  0.80390106  0.97491081  0.29709289     0.31900
C71         C  0.79904833  0.98468861  0.19528380     0.31900
C72         C  0.78274313  0.00363249  0.27919334    -0.04300
C73         C  0.83053942  0.98596915  0.27112195    -0.05000
C74         C  0.79700273  0.44465509  0.28576121    -0.04900
C75         C  0.77986681  0.00810696  0.22683644    -0.04300
C76         C  0.82794780  0.99139822  0.21942748    -0.05000
C77         C  0.79513790  0.44477545  0.23305649    -0.04900
C78         C  0.76924583  0.04157576  0.21848045    -0.30300
N79         N  0.76560244  0.05745549  0.26347748     0.16200
C80         C  0.77517368  0.03547415  0.29996368    -0.30300
H81         H  0.77893353  0.04363435  0.33838706     0.18100
C82         C  0.86640618  0.46705216  0.21193629    -0.29300
N83         N  0.88447697  0.46779306  0.25180781     0.14900
C84         C  0.86988814  0.46982857  0.29475140    -0.29300
C85         C  0.78211129  0.41494960  0.21767539    -0.29600
N86         N  0.77598725  0.39584186  0.25841750     0.15400
H87         H  0.77856887  0.40659438  0.17932501     0.18000
C88         C  0.78522469  0.41327499  0.30044774    -0.29600
H89         H  0.78455362  0.40316145  0.33828187     0.18000
H90         H  0.87885531  0.47128283  0.33243554     0.18000
H91         H  0.76726315  0.05454190  0.18239306     0.18100
H92         H  0.87228211  0.46630399  0.17309241     0.18000
O93         O  0.47318106  0.24162728  0.46244423    -0.69800
O94         O  0.55002088  0.21054960  0.01561610    -0.70100
O95         O  0.50540782  0.17277817  0.03796862    -0.69900
O96         O  0.51675771  0.28064380  0.44017244    -0.69900
O97         O  0.51170855  0.30638797  0.51237111    -0.69900
O98         O  0.50170433  0.20490634  0.10516401    -0.69900
O99         O  0.55152901  0.26016427  0.54525073    -0.69900
O100        O  0.46685132  0.24862169  0.05448538    -0.70000
V101        V  0.51121587  0.21522407  0.00220440     1.35200
V102        V  0.50616214  0.24560376  0.06683029     1.35200
C103        C  0.45643066  0.23486594  0.01502880     0.79400
C104        C  0.56101390  0.22627755  0.05280346     0.79400
C105        C  0.50194203  0.17498217  0.08471104     0.79300
C106        C  0.51498644  0.30858459  0.46571208     0.79300
O107        O  0.46128172  0.27269722  0.24754263    -0.69800
O108        O  0.53931717  0.26387229  0.23151277    -0.70100
O109        O  0.49547397  0.22266158  0.21338040    -0.69900
O110        O  0.50480425  0.31439559  0.26598934    -0.69900
O111        O  0.50752949  0.29130210  0.34057951    -0.69900
O112        O  0.50215596  0.19964059  0.28759327    -0.69900
O113        O  0.54429834  0.24352923  0.30753973    -0.69900
O114        O  0.46547556  0.24814239  0.32105768    -0.70000
V115        V  0.50032733  0.26786048  0.24098092     1.35200
V116        V  0.50478395  0.24616985  0.31282792     1.35200
C117        C  0.45001635  0.26162248  0.28668786     0.79400
C118        C  0.55517458  0.25266830  0.26690934     0.79400
C119        C  0.49748379  0.19575983  0.24109051     0.79300
C120        C  0.50730958  0.31822154  0.31296466     0.79300
O121        O  0.04007808  0.03144993  0.52142936    -0.69800
O122        O  0.96813471  0.01305784  0.01590710    -0.70100
O123        O  0.00642018  0.97605342  0.06944785    -0.69900
O124        O  0.99685554  0.07528480  0.50108366    -0.69900
O125        O  0.01888708  0.43528907  0.53020383    -0.69900
O126        O  0.00817860  0.51764413  0.05524443    -0.69900
O127        O  0.97422801  0.47081716  0.56469139    -0.69900
O128        O  0.05222605  0.48011816  0.02328909    -0.70000
V129        V  0.00721722  0.01605851  0.02838757     1.35200
V130        V  0.01241463  0.47485059  0.02089343     1.35200
C131        C  0.06369147  0.49636104  0.98798617     0.79400
C132        C  0.95792976  0.48003313  0.98337652     0.79400
C133        C  0.00374476  0.54583133  0.03126914     0.79300
C134        C  0.01701123  0.43503744  0.48276177     0.79300
O135        O  0.95837633  0.02450199  0.23084745    -0.69800
O136        O  0.03599708  0.03546383  0.21195859    -0.70100
O137        O  0.99885178  0.98568625  0.19059860    -0.69900
O138        O  0.99507958  0.07512603  0.25241450    -0.69900
O139        O  0.01813955  0.44144006  0.26854974    -0.69900
O140        O  0.00183642  0.51894218  0.18334563    -0.69900
O141        O  0.04875415  0.48610333  0.21530562    -0.69900
O142        O  0.97171032  0.47494339  0.23623478    -0.70000
V143        V  0.99729096  0.02969482  0.22282155     1.35200
V144        V  0.01017980  0.48110030  0.22704366     1.35200
C145        C  0.95989944  0.49040512  0.27212853     0.79400
C146        C  0.06278435  0.50628314  0.24341473     0.79400
C147        C  0.00014565  0.54988321  0.20019411     0.79300
C148        C  0.02220058  0.44636180  0.31502715     0.79300
C149        C  0.31163910  0.27088103  0.45099263     0.31900
C150        C  0.30182566  0.25120703  0.05057728     0.31900
C151        C  0.29243887  0.24245800  0.47019158    -0.04300
C152        C  0.33842191  0.26436651  0.48307050    -0.05000
C153        C  0.29970738  0.30450809  0.47527786    -0.04900
C154        C  0.29066264  0.22023077  0.01927771    -0.04300
C155        C  0.33234214  0.25190745  0.03484710    -0.05000
C156        C  0.28907515  0.28307328  0.02245398    -0.04900
C157        C  0.28067837  0.18746258  0.02939464    -0.30300
N158        N  0.26905903  0.19453240  0.48838063     0.16200
C159        C  0.28043165  0.21278706  0.45062676    -0.30300
H160        H  0.28179020  0.20360764  0.41254751     0.18100
C161        C  0.35808894  0.25014157  0.05866976    -0.29300
N162        N  0.38064231  0.26006451  0.51969811     0.14900
C163        C  0.36659496  0.26292983  0.47462201    -0.29300
C164        C  0.27475393  0.31323685  0.03549474    -0.29600
N165        N  0.28153512  0.35555910  0.50040604     0.15400
H166        H  0.26896579  0.32072007  0.07304390     0.18000
C167        C  0.29039299  0.33717369  0.45974129    -0.29600
H168        H  0.28979415  0.34683083  0.42147967     0.18000
H169        H  0.37600920  0.26559201  0.43843860     0.18000
H170        H  0.27611721  0.17768912  0.06627275     0.18100
H171        H  0.36213628  0.24784064  0.09858564     0.18000
C172        C  0.30093146  0.27100801  0.19869519     0.31900
C173        C  0.29955188  0.27585947  0.30222619     0.31900
C174        C  0.28602477  0.24056450  0.22573763    -0.04300
C175        C  0.32914810  0.27131050  0.22715576    -0.05000
C176        C  0.28643044  0.30398593  0.22033211    -0.04900
C177        C  0.28518615  0.24409756  0.27818257    -0.04300
C178        C  0.32892990  0.27378206  0.27960533    -0.05000
C179        C  0.28577362  0.30623788  0.27258744    -0.04900
C180        C  0.27199716  0.21557949  0.29681509    -0.30300
N181        N  0.26543931  0.19357363  0.25861776     0.16200
C182        C  0.27373178  0.20839518  0.21496375    -0.30300
H183        H  0.27138424  0.19602156  0.17878424     0.18100
C184        C  0.35664400  0.27620839  0.29553037    -0.29300
N185        N  0.37295245  0.27419644  0.25468515     0.14900
C186        C  0.35636085  0.27198208  0.21300219    -0.29300
C187        C  0.27396709  0.33822460  0.28447131    -0.29600
N188        N  0.26737556  0.35570797  0.24103994     0.15400
H189        H  0.27157822  0.34833398  0.32211815     0.18000
C190        C  0.27513460  0.33511466  0.20177711    -0.29600
H191        H  0.27334384  0.34265995  0.16261035     0.18000
H192        H  0.36370678  0.27157066  0.17509136     0.18000
H193        H  0.26769719  0.21081101  0.33559115     0.18100
H194        H  0.36468933  0.28103919  0.33311820     0.18000
C195        C  0.21606497  0.50968683  0.06986821     0.31900
C196        C  0.21465140  0.52155386  0.46743470     0.31900
C197        C  0.22928761  0.47719444  0.04549727    -0.04300
C198        C  0.18641519  0.50981345  0.04599579    -0.05000
C199        C  0.23214692  0.02994998  0.03459881    -0.04900
C200        C  0.22851105  0.49206148  0.49894838    -0.04300
C201        C  0.18438679  0.52089260  0.48525876    -0.05000
C202        C  0.21666623  0.05928531  0.48345314    -0.04900
C203        C  0.24186210  0.46092022  0.48824005    -0.30300
N204        N  0.24704537  0.44311803  0.53180424     0.16200
C205        C  0.23997604  0.44559355  0.06265467    -0.30300
H206        H  0.24286767  0.43772696  0.10154944     0.18100
C207        C  0.15795751  0.51729444  0.46419149    -0.29300
N208        N  0.12841101  0.03278967  0.51054387     0.14900
C209        C  0.15970262  0.50558668  0.06260513    -0.29300
C210        C  0.22697006  0.09146863  0.47083835    -0.29600
N211        N  0.23399746  0.10874210  0.51398103     0.15400
H212        H  0.22737501  0.10228682  0.43331780     0.18000
C213        C  0.24545965  0.05920699  0.05178217    -0.29600
H214        H  0.24690401  0.06796590  0.09038631     0.18000
H215        H  0.14841738  0.00025590  0.07713785     0.18000
H216        H  0.24629785  0.45153317  0.45098078     0.18100
H217        H  0.13510043  0.03626998  0.43034069     0.18000
C218        C  0.21018142  0.53304850  0.31873597     0.31900
C219        C  0.20904987  0.53006018  0.21520898     0.31900
C220        C  0.22321467  0.49922670  0.29545281    -0.04300
C221        C  0.18152764  0.53438858  0.29242298    -0.05000
C222        C  0.22133107  0.05350091  0.27557675    -0.04900
C223        C  0.22263714  0.49782052  0.24248350    -0.04300
C224        C  0.18079754  0.53244130  0.24026061    -0.05000
C225        C  0.21743732  0.05061604  0.22347523    -0.04900
C226        C  0.23013911  0.46385303  0.22924827    -0.30300
N227        N  0.23630731  0.44520954  0.27156745     0.16200
C228        C  0.23124096  0.46594504  0.31183135    -0.30300
H229        H  0.23191198  0.45612433  0.34981953     0.18100
C230        C  0.15321883  0.53038834  0.22500824    -0.29300
N231        N  0.13223241  0.02206386  0.26729295     0.14900
C232        C  0.15457334  0.53454110  0.30777518    -0.29300
C233        C  0.22738714  0.08059239  0.20234091    -0.29600
N234        N  0.23729433  0.10178975  0.23950463     0.15400
H235        H  0.22616379  0.08741286  0.16293111     0.18000
C236        C  0.23365092  0.08549727  0.28451748    -0.29600
H237        H  0.23879873  0.09624909  0.32117581     0.18000
H238        H  0.14583225  0.02072760  0.34489354     0.18000
H239        H  0.22898539  0.45237725  0.19222771     0.18100
H240        H  0.13636907  0.01878931  0.18641551     0.18000
C241        C  0.21971877  0.51790363  0.41130243    -0.14500
C242        C  0.20782916  0.53854611  0.37564465    -0.29700
H243        H  0.23459771  0.49826013  0.40028517     0.14500
H244        H  0.23446235  0.01497032  0.37769204     0.15100
C245        C  0.20613240  0.53133930  0.15781045    -0.14500
C246        C  0.22002065  0.50996568  0.12672170    -0.29700
H247        H  0.17587314  0.02588179  0.13265121     0.14500
H248        H  0.23690827  0.49391646  0.14194192     0.15100
C249        C  0.25315590  0.15974077  0.26681852    -0.14500
C250        C  0.24887072  0.13587898  0.23016324    -0.29700
H251        H  0.24757987  0.15331624  0.30489038     0.14500
H252        H  0.25383644  0.14232210  0.19180124     0.15100
C253        C  0.24565110  0.40904756  0.27525488    -0.14500
C254        C  0.25602855  0.39097178  0.23602490    -0.29700
H255        H  0.24535115  0.39677349  0.31193682     0.14500
H256        H  0.25642195  0.40325538  0.19931492     0.15100
C257        C  0.24481212  0.14354320  0.51956811    -0.14500
C258        C  0.25621308  0.16089918  0.48153877    -0.29700
H259        H  0.26922272  0.12150036  0.05546455     0.14500
H260        H  0.25646446  0.14906883  0.44442728     0.15100
C261        C  0.26980605  0.39063519  0.49720332    -0.14500
C262        C  0.25973927  0.40852062  0.53697952    -0.29700
H263        H  0.26897352  0.40257907  0.46031658     0.14500
H264        H  0.26270888  0.38032580  0.06453290     0.15100
C265        C  0.31601080  0.27036823  0.39442354    -0.14500
C266        C  0.29608500  0.27860753  0.35939096    -0.29700
H267        H  0.33568667  0.25987045  0.38261060     0.14500
H268        H  0.27549925  0.28587751  0.37228944     0.15100
C269        C  0.29635356  0.24865607  0.10697727    -0.14500
C270        C  0.30446518  0.27273577  0.14129801    -0.29700
H271        H  0.28535689  0.22619495  0.11908792     0.14500
H272        H  0.31540838  0.29532722  0.12762048     0.15100
C273        C  0.08379912  0.02804136  0.23726528    -0.14500
C274        C  0.10269490  0.01951654  0.27376650    -0.29700
H275        H  0.10224300  0.49882108  0.20358428     0.14500
H276        H  0.09558703  0.01144908  0.31033687     0.15100
C277        C  0.11226718  0.99819542  0.99061617    -0.14500
C278        C  0.09366905  0.00824256  0.02491179    -0.29700
H279        H  0.10436494  0.48770909  0.06112741     0.14500
H280        H  0.08988345  0.01818037  0.43842564     0.15100
C281        C  0.96625623  0.11734539  0.39838558    -0.11400
C282        C  0.02308882  0.40415092  0.45206648     0.10700
C283        C  0.04935605  0.40616011  0.43054177    -0.11400
C284        C  0.05056425  0.41521586  0.37973801    -0.11400
C285        C  0.02585659  0.41727777  0.35043198     0.10700
C286        C  0.96890807  0.11588767  0.34616762    -0.11400
H287        H  0.94596309  0.11262586  0.41353252     0.14700
H288        H  0.06756299  0.41091797  0.45441070     0.14700
H289        H  0.06964109  0.42582344  0.36585226     0.14700
H290        H  0.95054908  0.11028170  0.32313600     0.14700
C291        C  0.97195949  0.57803980  0.08276641    -0.11400
C292        C  0.99809501  0.57755398  0.06046448     0.10700
C293        C  0.03502329  0.91330716  0.11612976    -0.11400
C294        C  0.03309064  0.91825405  0.16803335    -0.11400
C295        C  0.99567112  0.57840833  0.16407678     0.10700
C296        C  0.97079500  0.57762797  0.13519621    -0.11400
H297        H  0.95371691  0.56989561  0.06118304     0.14700
H298        H  0.05520130  0.91624423  0.09956163     0.14700
H299        H  0.05182777  0.92464622  0.18952516     0.14700
H300        H  0.95173826  0.56936968  0.15210688     0.14700
C301        C  0.41949157  0.26395736  0.29180025    -0.14500
C302        C  0.40282814  0.27499844  0.25329940    -0.29700
H303        H  0.41059866  0.25498243  0.32645393     0.14500
H304        H  0.41204808  0.28215811  0.21799624     0.15100
C305        C  0.42626313  0.23724023  0.00247736    -0.14500
C306        C  0.40748246  0.24900424  0.03531804    -0.29700
H307        H  0.41931012  0.22789221  0.96575616     0.14500
H308        H  0.41858387  0.26319363  0.56692876     0.15100
C309        C  0.53649762  0.35605784  0.36085308    -0.11400
C310        C  0.51009107  0.35241870  0.33767331     0.10700
C311        C  0.48711419  0.36067082  0.36730319    -0.11400
C312        C  0.48947072  0.35392170  0.41901154    -0.11400
C313        C  0.51527862  0.34218448  0.43938777     0.10700
C314        C  0.53929103  0.34894134  0.41237864    -0.11400
H315        H  0.55494245  0.35365137  0.33848584     0.14700
H316        H  0.46640687  0.36187711  0.35004986     0.14700
H317        H  0.47060104  0.35043087  0.43967387     0.14700
H318        H  0.55967277  0.34155575  0.42786718     0.14700
C319        C  0.52207005  0.13779208  0.14858881    -0.11400
C320        C  0.49858959  0.14448561  0.11715179     0.10700
C321        C  0.47250966  0.14435268  0.13961035    -0.11400
C322        C  0.47101736  0.15445027  0.19004040    -0.11400
C323        C  0.49577126  0.16127529  0.21732066     0.10700
C324        C  0.52086369  0.14744031  0.19928815    -0.11400
H325        H  0.54242605  0.13487744  0.13235567     0.14700
H326        H  0.45370399  0.14660778  0.11625955     0.14700
H327        H  0.45118991  0.16379501  0.20381486     0.14700
H328        H  0.54022922  0.15125052  0.22032481     0.14700
C329        C  0.91402510  0.46892236  0.24709678    -0.14500
C330        C  0.93014446  0.48610711  0.28041572    -0.29700
H331        H  0.92297065  0.45823481  0.21311808     0.14500
H332        H  0.91373938  0.99142385  0.31125689     0.15100
C333        C  0.80719585  0.96825019  0.35363920    -0.14500
C334        C  0.78942965  0.98117284  0.38788571    -0.29700
H335        H  0.82530262  0.95298100  0.36657075     0.14500
H336        H  0.78640424  0.45004575  0.38992914     0.15100
C337        C  0.79603046  0.99018974  0.13878084    -0.14500
C338        C  0.81414809  0.97619342  0.10621500    -0.29700
H339        H  0.77812914  0.00522427  0.12484578     0.14500
H340        H  0.79912563  0.51763000  0.12370252     0.15100
C341        C  0.92713754  0.47667785  0.97953673    -0.14500
C342        C  0.91083243  0.47122438  0.01905487    -0.29700
H343        H  0.90884765  0.01827773  0.54656302     0.14500
H344        H  0.92048965  0.46877503  0.05636388     0.15100
C345        C  0.75637425  0.09279855  0.27329574    -0.14500
C346        C  0.74233452  0.11248203  0.23889182    -0.29700
H347        H  0.76019329  0.10309404  0.31081034     0.14500
H348        H  0.73854358  0.10223826  0.20128758     0.15100
C349        C  0.76270857  0.36235811  0.25320780    -0.14500
C350        C  0.75888644  0.34015330  0.29143292    -0.29700
H351        H  0.75575774  0.35492518  0.21566806     0.14500
H352        H  0.76611501  0.34716278  0.32906268     0.15100
C353        C  0.60397130  0.24049003  0.29645544    -0.14500
C354        C  0.58558364  0.25054359  0.25983606    -0.24900
H355        H  0.59636659  0.23397973  0.33332309     0.14500
H356        H  0.59283135  0.25799404  0.22323638     0.15100
C357        C  0.76029044  0.11497030  0.03420696    -0.14500
C358        C  0.76542367  0.09474331  0.99372185    -0.29700
H359        H  0.76410055  0.10449974  0.07169263     0.14500
H360        H  0.75481332  0.10882349  0.45843501     0.15100
C361        C  0.75553558  0.36843733  0.03372162    -0.14500
C362        C  0.74766194  0.34580899  0.99737738    -0.29700
H363        H  0.75193257  0.36205662  0.07268637     0.14500
H364        H  0.74286076  0.36876885  0.46560255     0.15100
C365        C  0.71437032  0.21868411  0.38099096    -0.14500
C366        C  0.70417791  0.24002537  0.41669835    -0.29700
H367        H  0.72752357  0.19662581  0.39173153     0.14500
H368        H  0.69212334  0.26292469  0.40407959     0.15100
C369        C  0.71696114  0.23502916  0.13240429    -0.14500
C370        C  0.69714055  0.24193665  0.16639778    -0.29700
H371        H  0.73793378  0.22899588  0.14664020     0.14500
H372        H  0.67661272  0.25021472  0.15340030     0.15100
C373        C  0.59158198  0.22539149  0.06131007    -0.14500
C374        C  0.60835748  0.21156514  0.02648242    -0.29700
H375        H  0.60034893  0.23856973  0.09413378     0.14500
H376        H  0.60502237  0.26806452  0.57809001     0.15100
C377        C  0.70782611  0.22414592  0.97247630     0.31900
C378        C  0.71871546  0.24304136  0.57573182     0.31900
C379        C  0.71834234  0.25959593  0.99174949    -0.04300
C380        C  0.68071733  0.22073544  0.00068366    -0.05000
C381        C  0.72704280  0.19786069  0.99987199    -0.04900
C382        C  0.73375220  0.26975702  0.54408383    -0.04300
C383        C  0.68827658  0.24731271  0.55649566    -0.05000
C384        C  0.72789257  0.20805578  0.55194827    -0.04900
C385        C  0.74030589  0.30405718  0.55435498    -0.30300
N386        N  0.74047555  0.32204483  0.51057974     0.16200
C387        C  0.72706440  0.29011263  0.97046750    -0.30300
H388        H  0.72754988  0.29583552  0.93073128     0.18100
C389        C  0.66234458  0.25306276  0.57658098    -0.29300
N390        N  0.63810474  0.21528591  0.02835187     0.14900
C391        C  0.65351984  0.21502453  0.98665476    -0.29300
C392        C  0.73934365  0.17692926  0.56944181    -0.29600
N393        N  0.74160559  0.15424003  0.53041558     0.15400
H394        H  0.74560327  0.17111222  0.60780680     0.18000
C395        C  0.73897337  0.16626277  0.98703256    -0.29600
H396        H  0.73841525  0.15505464  0.94969411     0.18000
H397        H  0.64526530  0.21167414  0.94870068     0.18000
H398        H  0.74197798  0.31559359  0.59144201     0.18100
H399        H  0.65785636  0.25657258  0.61584798     0.18000
C400        C  0.71442851  0.23440397  0.72382569     0.31900
C401        C  0.71995235  0.22995036  0.82671673     0.31900
C402        C  0.73517604  0.26027898  0.74896700    -0.04300
C403        C  0.68794657  0.24144067  0.75294049    -0.05000
C404        C  0.72432396  0.19919987  0.74545945    -0.04900
C405        C  0.73791384  0.25731227  0.80145353    -0.04300
C406        C  0.69046187  0.23969841  0.80526825    -0.05000
C407        C  0.72755823  0.19656492  0.79744103    -0.04900
C408        C  0.75185485  0.28601973  0.81929143    -0.30300
N409        N  0.75759662  0.30687412  0.78015013     0.16200
C410        C  0.74691644  0.29208653  0.73719041    -0.30300
H411        H  0.74549587  0.30507616  0.70115889     0.18100
C412        C  0.66368924  0.24283563  0.82276353    -0.29300
N413        N  0.64546697  0.24508793  0.78289914     0.14900
C414        C  0.66013304  0.24442655  0.74005769    -0.29300
C415        C  0.73780370  0.16307813  0.80741777    -0.29600
N416        N  0.74027594  0.14587391  0.76269374     0.15400
H417        H  0.74295205  0.15225407  0.84414303     0.18000
C418        C  0.73175427  0.16764920  0.72514919    -0.29600
H419        H  0.73126466  0.16091027  0.68575467     0.18000
H420        H  0.65133400  0.24356154  0.70229773     0.18000
H421        H  0.75583520  0.29269507  0.85832890     0.18100
H422        H  0.65739406  0.24203944  0.86137691     0.18000
C423        C  0.80378236  0.98046149  0.54660690     0.31900
C424        C  0.80800514  0.97766021  0.94575587     0.31900
C425        C  0.78231825  0.00864484  0.52651732    -0.04300
C426        C  0.82924035  0.98791866  0.51539961    -0.05000
C427        C  0.79051460  0.46170935  0.54183857    -0.04900
C428        C  0.78976635  0.00590980  0.97189314    -0.04300
C429        C  0.83748937  0.98452418  0.96957118    -0.05000
C430        C  0.79185253  0.44422025  0.98678829    -0.04900
C431        C  0.77905134  0.03804416  0.95658694    -0.30300
N432        N  0.76587462  0.06142388  0.49993240     0.16200
C433        C  0.77584935  0.04306511  0.54072261    -0.30300
H434        H  0.78066840  0.05482947  0.57682623     0.18100
C435        C  0.86458410  0.46697882  0.97165359    -0.29300
N436        N  0.88069914  0.47803852  0.50170406     0.14900
C437        C  0.86605384  0.48235499  0.54430043    -0.29300
C438        C  0.77829855  0.41299870  0.97848760    -0.29600
N439        N  0.76638878  0.41321988  0.52981530     0.15400
H440        H  0.77622533  0.39964515  0.94275054     0.18000
C441        C  0.77636393  0.43563808  0.56533085    -0.29600
H442        H  0.77504142  0.43181072  0.60528366     0.18000
H443        H  0.87451536  0.49188999  0.57978584     0.18000
H444        H  0.77575440  0.04676866  0.91843144     0.18100
H445        H  0.87240228  0.46163858  0.93464701     0.18000
C446        C  0.81555161  0.97317690  0.79671317     0.31900
C447        C  0.80456516  0.98418728  0.69588409     0.31900
C448        C  0.79774736  0.00577811  0.78270592    -0.04300
C449        C  0.84111214  0.97827131  0.76387760    -0.05000
C450        C  0.80509604  0.44541903  0.78353853    -0.04900
C451        C  0.79168467  0.01090484  0.73186433    -0.04300
C452        C  0.83557870  0.98426113  0.71276779    -0.05000
C453        C  0.80384427  0.44648572  0.73084255    -0.04900
C454        C  0.77857792  0.04315831  0.72700199    -0.30300
N455        N  0.77667837  0.05779862  0.77351952     0.16200
C456        C  0.78909813  0.03559655  0.80722389    -0.30300
H457        H  0.79340714  0.04183263  0.84602489     0.18100
C458        C  0.87471006  0.46900626  0.71346421    -0.29300
N459        N  0.89246381  0.46712801  0.75390529     0.14900
C460        C  0.87749155  0.46922673  0.79654401    -0.29300
C461        C  0.79417182  0.41495317  0.71375569    -0.29600
N462        N  0.78919021  0.39441854  0.75355880     0.15400
H463        H  0.79271826  0.40634431  0.67512674     0.18000
C464        C  0.79660218  0.41206928  0.79635110    -0.29600
H465        H  0.79781423  0.40045645  0.83334325     0.18000
H466        H  0.88601338  0.46799073  0.83460035     0.18000
H467        H  0.77260098  0.05572999  0.69185840     0.18100
H468        H  0.88081819  0.46809444  0.67460676     0.18000
O469        O  0.47253727  0.21882569  0.98571806    -0.69800
O470        O  0.55118976  0.23046498  0.47543324    -0.70100
O471        O  0.50775319  0.19127776  0.49955455    -0.69900
O472        O  0.51746717  0.25612963  0.96449627    -0.69900
O473        O  0.51052652  0.28803711  0.03103477    -0.69900
O474        O  0.51122881  0.21678162  0.57262803    -0.69900
O475        O  0.54531108  0.24366650  0.08146806    -0.69900
O476        O  0.47153947  0.26200898  0.53866408    -0.70000
V477        V  0.51220580  0.23656158  0.47077130     1.35200
V478        V  0.51152981  0.26080300  0.54107031     1.35200
C479        C  0.45890074  0.25267723  0.49840007     0.79400
C480        C  0.56481712  0.24430270  0.51116050     0.79400
C481        C  0.50859374  0.18909116  0.54691762     0.79300
C482        C  0.51606245  0.28600050  0.98514242     0.79300
O483        O  0.47386625  0.26396099  0.74441363    -0.69800
O484        O  0.55123088  0.25901000  0.72089974    -0.70100
O485        O  0.50694398  0.22080365  0.69296357    -0.69900
O486        O  0.51774674  0.30231292  0.77221793    -0.69900
O487        O  0.52119542  0.26878285  0.83828944    -0.69900
O488        O  0.51603910  0.18720559  0.75758174    -0.69900
O489        O  0.55765805  0.22908062  0.78985699    -0.69900
O490        O  0.47940583  0.22803443  0.80732895    -0.70000
V491        V  0.51255975  0.26074085  0.73373200     1.35200
V492        V  0.51847049  0.22885247  0.79700005     1.35200
C493        C  0.46339163  0.24680975  0.77960702     0.79400
C494        C  0.56772958  0.24465665  0.75279878     0.79400
C495        C  0.50990337  0.19038027  0.71137159     0.79300
C496        C  0.52093162  0.29912641  0.81917564     0.79300
O497        O  0.04608631  0.02010765  0.04317174    -0.69800
O498        O  0.96202583  0.02725471  0.53640266    -0.70100
O499        O  0.00529464  0.98392764  0.55612997    -0.69900
O500        O  0.00761558  0.05786712  0.98992082    -0.69900
O501        O  0.01684159  0.43033997  0.98945590    -0.69900
O502        O  0.00695785  0.52162415  0.59809438    -0.69900
O503        O  0.97265036  0.46915421  0.02084057    -0.69900
O504        O  0.05151410  0.48626377  0.56596726    -0.70000
V505        V  0.00096926  0.02895254  0.52737580     1.35200
V506        V  0.01277846  0.47908901  0.56338393     1.35200
C507        C  0.06308468  0.50056561  0.52959456     0.79400
C508        C  0.95824183  0.48385319  0.53105242     0.79400
C509        C  0.00438084  0.55037007  0.57461081     0.79300
C510        C  0.01732851  0.42934086  0.94216222     0.79300
O511        O  0.96931602  0.00860066  0.70639687    -0.69800
O512        O  0.04732796  0.01923330  0.68723254    -0.70100
O513        O  0.00927791  0.97085341  0.66239791    -0.69900
O514        O  0.00728981  0.05756182  0.73124785    -0.69900
O515        O  0.02309509  0.42488838  0.74466346    -0.69900
O516        O  0.01176040  0.51803048  0.69775371    -0.69900
O517        O  0.05614511  0.47459078  0.70723230    -0.69900
O518        O  0.97924093  0.46871573  0.73376859    -0.70000
V519        V  0.00848753  0.01340957  0.69807239     1.35200
V520        V  0.01772967  0.47205341  0.72213256     1.35200
C521        C  0.97000980  0.47622901  0.77657443     0.79400
C522        C  0.07255415  0.48772141  0.73968643     0.79400
C523        C  0.01177892  0.54404551  0.72733651     0.79300
C524        C  0.03011098  0.42023710  0.79027739     0.79300
C525        C  0.31048834  0.25322158  0.94865799     0.31900
C526        C  0.30534316  0.26862455  0.55295573     0.31900
C527        C  0.29504296  0.22139059  0.96779243    -0.04300
C528        C  0.33677716  0.25287215  0.98317563    -0.05000
C529        C  0.29294944  0.28406368  0.97044501    -0.04900
C530        C  0.28901524  0.24155510  0.52189844    -0.04300
C531        C  0.33527433  0.26283837  0.53487429    -0.05000
C532        C  0.29647298  0.30323962  0.52727978    -0.04900
C533        C  0.27444527  0.21180804  0.53230552    -0.30300
N534        N  0.27881887  0.16893661  0.98559239     0.16200
C535        C  0.28748884  0.18951785  0.94789279    -0.30300
H536        H  0.28947768  0.18112087  0.90928708     0.18100
C537        C  0.36166293  0.25979277  0.55651749    -0.29300
N538        N  0.37798866  0.25012085  0.02345890     0.14900
C539        C  0.36520671  0.25170331  0.97709625    -0.29300
C540        C  0.28518212  0.33498286  0.54192754    -0.29600
N541        N  0.26931070  0.33225233  0.99303128     0.15400
H542        H  0.27989400  0.34217569  0.57983205     0.18000
C543        C  0.27937613  0.31424345  0.95333265    -0.29600
H544        H  0.27669815  0.32323040  0.91506671     0.18000
H545        H  0.37567685  0.25209830  0.94163423     0.18000
H546        H  0.26984829  0.20252192  0.56944407     0.18100
H547        H  0.36687203  0.25835034  0.59613937     0.18000
C548        C  0.31544704  0.27701861  0.70022255     0.31900
C549        C  0.31384297  0.27545933  0.80315385     0.31900
C550        C  0.29730428  0.24821272  0.72242336    -0.04300
C551        C  0.34326272  0.27074300  0.72833356    -0.05000
C552        C  0.30457561  0.31015717  0.72528488    -0.04900
C553        C  0.29604298  0.24761085  0.77521554    -0.04300
C554        C  0.34274577  0.26962221  0.78071407    -0.05000
C555        C  0.30361245  0.30969194  0.77730531    -0.04900
C556        C  0.28552177  0.21531868  0.78785438    -0.30300
N557        N  0.28061038  0.19658915  0.74495697     0.16200
C558        C  0.28870585  0.21587950  0.70555354    -0.30300
H559        H  0.29012977  0.20563783  0.66778381     0.18100
C560        C  0.37014199  0.26674173  0.79795518    -0.29300
N561        N  0.38669647  0.26655356  0.75723555     0.14900
C562        C  0.37051182  0.26940845  0.71501147    -0.29300
C563        C  0.29410404  0.34249558  0.79180710    -0.29600
N564        N  0.28958204  0.36238636  0.74979703     0.15400
H565        H  0.29134886  0.35135151  0.82997671     0.18000
C566        C  0.29608132  0.34283211  0.70912980    -0.29600
H567        H  0.29497105  0.35193999  0.67060265     0.18000
H568        H  0.37828016  0.27173015  0.67749821     0.18000
H569        H  0.28321970  0.20557503  0.82551763     0.18100
H570        H  0.37749324  0.26677318  0.83679516     0.18000
C571        C  0.20830765  0.52573673  0.56956857     0.31900
C572        C  0.21315525  0.50703770  0.96671510     0.31900
C573        C  0.22519845  0.49359590  0.55075777    -0.04300
C574        C  0.18135369  0.52340045  0.53718511    -0.05000
C575        C  0.21779557  0.05672438  0.53616597    -0.04900
C576        C  0.22771745  0.47554509  0.99325905    -0.04300
C577        C  0.18491492  0.50871251  0.99338354    -0.05000
C578        C  0.23311609  0.02989436  0.98235214    -0.04900
C579        C  0.23748671  0.44262111  0.97988663    -0.30300
N580        N  0.24486258  0.42458195  0.02263392     0.16200
C581        C  0.23674525  0.46273310  0.57019071    -0.30300
H582        H  0.23682191  0.45453118  0.60908885     0.18100
C583        C  0.15721631  0.50416896  0.97967836    -0.29300
N584        N  0.14157454  0.00462673  0.99704320     0.14900
C585        C  0.15342279  0.52160433  0.54625608    -0.29300
C586        C  0.24667240  0.06002818  0.96910075    -0.29600
N587        N  0.25411863  0.07759475  0.01194308     0.15400
H588        H  0.24919988  0.06940216  0.93129090     0.18000
C589        C  0.22762774  0.08841187  0.55360069    -0.29600
H590        H  0.22844508  0.09755268  0.59204009     0.18000
H591        H  0.13987237  0.02769633  0.58936451     0.18000
H592        H  0.23826696  0.43246019  0.94199819     0.18100
H593        H  0.15341108  0.00182209  0.91951596     0.18000
C594        C  0.21742162  0.52776900  0.82080586     0.31900
C595        C  0.21975765  0.52394509  0.71804068     0.31900
C596        C  0.24026909  0.50317065  0.80075021    -0.04300
C597        C  0.19137396  0.51504276  0.79325220    -0.05000
C598        C  0.22835992  0.05839020  0.78906692    -0.04900
C599        C  0.24130702  0.50120378  0.74798158    -0.04300
C600        C  0.19198524  0.51283573  0.74087681    -0.05000
C601        C  0.22907120  0.06066729  0.73704079    -0.04900
C602        C  0.25281565  0.46889853  0.73682432    -0.30300
N603        N  0.25964083  0.45174820  0.78019882     0.16200
C604        C  0.25151458  0.47200978  0.81911398    -0.30300
H605        H  0.25159896  0.46327911  0.85776054     0.18100
C606        C  0.16514079  0.50469991  0.72481424    -0.29300
N607        N  0.14232688  0.01989340  0.75345609     0.14900
C608        C  0.16506124  0.50858345  0.80768843    -0.29300
C609        C  0.24196113  0.09176375  0.72624213    -0.29600
N610        N  0.24902688  0.10815583  0.77030845     0.15400
H611        H  0.24522175  0.10184879  0.68899705     0.18000
C612        C  0.24072807  0.08786655  0.80870945    -0.29600
H613        H  0.24306501  0.09451897  0.84811806     0.18000
H614        H  0.15193345  0.01633102  0.83320707     0.18000
H615        H  0.25307404  0.45738028  0.69969573     0.18100
H616        H  0.15134328  0.02337577  0.67433953     0.18000
C617        C  0.21167268  0.50396058  0.90925943    -0.14500
C618        C  0.21498269  0.53121188  0.87765566    -0.29700
H619        H  0.20853867  0.47808187  0.89332320     0.14500
H620        H  0.20596354  0.05300719  0.88379205     0.15100
C621        C  0.22362442  0.52170336  0.66121303    -0.14500
C622        C  0.20369593  0.52926621  0.62603538    -0.29700
H623        H  0.23379984  0.05176798  0.63812714     0.14500
H624        H  0.18351840  0.53865761  0.63801974     0.15100
C625        C  0.26987588  0.16166335  0.73893893    -0.14500
C626        C  0.26159700  0.14202397  0.77751650    -0.29700
H627        H  0.26781406  0.15149306  0.70097265     0.14500
H628        H  0.26385527  0.15197700  0.81559931     0.15100
C629        C  0.26967568  0.41609501  0.78526444    -0.14500
C630        C  0.28032639  0.39837219  0.74633462    -0.29700
H631        H  0.26846822  0.40356902  0.82168043     0.14500
H632        H  0.28173255  0.41118763  0.71016840     0.15100
C633        C  0.26541317  0.11209343  0.01748193    -0.14500
C634        C  0.27002543  0.13329737  0.97848668    -0.29700
H635        H  0.24480489  0.15511220  0.55680460     0.14500
H636        H  0.26682842  0.12381974  0.94033617     0.15100
C637        C  0.25672837  0.36676044  0.98849149    -0.14500
C638        C  0.25534444  0.38901946  0.02758996    -0.29700
H639        H  0.24988093  0.37551134  0.95133553     0.14500
H640        H  0.26083584  0.39677780  0.57408137     0.15100
C641        C  0.31599818  0.25087011  0.89219151    -0.14500
C642        C  0.31305877  0.27798332  0.86023701    -0.29700
H643        H  0.32186759  0.22542603  0.87707269     0.14500
H644        H  0.31093475  0.30387749  0.87569692     0.15100
C645        C  0.30094652  0.26628279  0.60906079    -0.14500
C646        C  0.31781930  0.28128354  0.64362954    -0.29700
H647        H  0.28315046  0.25196980  0.62100248     0.14500
H648        H  0.33383129  0.29862078  0.63088709     0.15100
C649        C  0.09520753  0.01514650  0.71498706    -0.14500
C650        C  0.11323850  0.01094846  0.75439521    -0.29700
H651        H  0.11052806  0.48464791  0.69379790     0.14500
H652        H  0.10533094  0.00185050  0.78987860     0.15100
C653        C  0.09861125  0.03189656  0.51420954    -0.14500
C654        C  0.08153293  0.02411892  0.47499792    -0.29700
H655        H  0.09990967  0.51886259  0.45761869     0.14500
H656        H  0.10067160  0.02101005  0.05939373     0.15100
C657        C  0.98684755  0.09318910  0.88508367    -0.11400
C658        C  0.02164554  0.39667654  0.91431404     0.10700
C659        C  0.04895835  0.38922069  0.89943183    -0.11400
C660        C  0.05352507  0.38144787  0.84878380    -0.11400
C661        C  0.03094837  0.38562722  0.81439218     0.10700
C662        C  0.98657870  0.09632107  0.83275276    -0.11400
H663        H  0.96729379  0.08911884  0.90336235     0.14700
H664        H  0.06657043  0.39618167  0.92352802     0.14700
H665        H  0.07459263  0.38309831  0.83560129     0.14700
H666        H  0.96679673  0.09416155  0.81246489     0.14700
C667        C  0.97709943  0.58476496  0.63168777    -0.11400
C668        C  0.00141625  0.58269421  0.60371409     0.10700
C669        C  0.03565376  0.91505907  0.57352950    -0.11400
C670        C  0.03854028  0.90738561  0.62485545    -0.11400
C671        C  0.00638602  0.57896209  0.70620118     0.10700
C672        C  0.97964372  0.58315885  0.68412775    -0.11400
H673        H  0.95717446  0.57859078  0.61403661     0.14700
H674        H  0.05398782  0.92241880  0.55353119     0.14700
H675        H  0.05905370  0.90939239  0.64253845     0.14700
H676        H  0.96156358  0.57578326  0.70484875     0.14700
C677        C  0.43312233  0.24863312  0.78762335    -0.14500
C678        C  0.41645505  0.26728805  0.75600089    -0.29700
H679        H  0.42437330  0.23354920  0.81772753     0.14500
H680        H  0.42547631  0.28077897  0.72457667     0.15100
C681        C  0.42830568  0.25421551  0.49140770    -0.14500
C682        C  0.41047552  0.25975652  0.52871194    -0.29700
H683        H  0.42028504  0.24907227  0.45366747     0.14500
H684        H  0.41447377  0.25640980  0.07301607     0.15100
C685        C  0.54821416  0.32803256  0.88259680    -0.11400
C686        C  0.52353761  0.32906082  0.85310273     0.10700
C687        C  0.49867708  0.33785751  0.87694153    -0.11400
C688        C  0.49675731  0.33064136  0.92820119    -0.11400
C689        C  0.52021896  0.31700105  0.95452607     0.10700
C690        C  0.54651959  0.32034670  0.93367821    -0.11400
H691        H  0.56799300  0.32337844  0.86486852     0.14700
H692        H  0.47949282  0.34097761  0.85482176     0.14700
H693        H  0.47628728  0.32900238  0.94405073     0.14700
H694        H  0.56501855  0.31058495  0.95377627     0.14700
C695        C  0.53061532  0.14603748  0.60092930    -0.11400
C696        C  0.50614319  0.15606799  0.57415771     0.10700
C697        C  0.48093583  0.15382439  0.59923849    -0.11400
C698        C  0.48139033  0.15738939  0.65156678    -0.11400
C699        C  0.50709618  0.16033394  0.67752482     0.10700
C700        C  0.53131630  0.14927739  0.65335857    -0.11400
H701        H  0.55027654  0.14517183  0.58192954     0.14700
H702        H  0.46142438  0.15915695  0.57895599     0.14700
H703        H  0.46226042  0.16490083  0.66974177     0.14700
H704        H  0.55138986  0.15039090  0.67289075     0.14700
C705        C  0.92211041  0.46435196  0.74940859    -0.14500
C706        C  0.94007385  0.47397136  0.78624079    -0.29700
H707        H  0.93001512  0.45703967  0.71287355     0.14500
H708        H  0.92559691  0.97523004  0.78832907     0.15100
C709        C  0.82212568  0.96943200  0.85336954    -0.14500
C710        C  0.80275425  0.97527886  0.88860662    -0.29700
H711        H  0.84353554  0.96461909  0.86524540     0.14500
H712        H  0.79219438  0.44483017  0.88516243     0.15100
C713        C  0.79747983  0.99161704  0.64051957    -0.14500
C714        C  0.81046631  0.97535301  0.60268247    -0.29700
H715        H  0.78083071  0.01025713  0.63184075     0.14500
H716        H  0.80966359  0.52402471  0.62625642     0.15100
C717        C  0.92806995  0.47914979  0.53491748    -0.14500
C718        C  0.90997086  0.48378923  0.49617264    -0.29700
H719        H  0.92176161  0.97863965  0.93426739     0.14500
H720        H  0.91755185  0.49036063  0.45932385     0.15100
C721        C  0.76540555  0.09183673  0.78624621    -0.14500
C722        C  0.75032304  0.11093777  0.75276840    -0.29700
H723        H  0.76933190  0.10200425  0.82386506     0.14500
H724        H  0.74637724  0.10057018  0.71533194     0.15100
C725        C  0.77906177  0.35929685  0.74800203    -0.14500
C726        C  0.76956946  0.34097763  0.78662817    -0.29700
H727        H  0.77800729  0.34806478  0.71049582     0.14500
H728        H  0.77077504  0.35196990  0.82426166     0.15100
C729        C  0.61571656  0.24320887  0.78702155    -0.14500
C730        C  0.59800791  0.24694523  0.74723208    -0.24900
H731        H  0.60741578  0.23854454  0.82396787     0.14500
H732        H  0.60553488  0.25362372  0.71050538     0.15100
C733        C  0.75168694  0.11834496  0.53579037    -0.14500
C734        C  0.75749309  0.09795384  0.49593065    -0.29700
H735        H  0.75447537  0.10764845  0.57341138     0.14500
H736        H  0.76168736  0.10531918  0.95632293     0.15100
C737        C  0.75567738  0.37921534  0.54039188    -0.14500
C738        C  0.74562909  0.35854474  0.50341851    -0.29700
H739        H  0.75780453  0.36951011  0.57859767     0.14500
H740        H  0.75071994  0.35257194  0.95837179     0.15100
C741        C  0.72452932  0.22850463  0.88369565    -0.14500
C742        C  0.70501605  0.21871429  0.91583119    -0.29700
H743        H  0.74377618  0.23895483  0.89930769     0.14500
H744        H  0.68639274  0.20647744  0.90109826     0.15100
C745        C  0.72460607  0.24730837  0.63203715    -0.14500
C746        C  0.70941055  0.23195418  0.66701210    -0.29700
H747        H  0.74207200  0.26306949  0.64371876     0.14500
H748        H  0.69298094  0.21460664  0.65423645     0.15100
C749        C  0.59544015  0.24175388  0.51020604    -0.14500
C750        C  0.61307103  0.25550088  0.54466986    -0.29700
H751        H  0.60384489  0.22764172  0.47842019     0.14500
H752        H  0.59908550  0.20018013  0.99260445     0.15100
C753        C  0.70217186  0.72596754  0.44897519     0.31900
C754        C  0.71814916  0.73658387  0.05115891     0.31900
C755        C  0.71578097  0.76072978  0.46473497    -0.04300
C756        C  0.67503037  0.72732530  0.47912409    -0.05000
C757        C  0.71982422  0.69860051  0.47820135    -0.04900
C758        C  0.73555542  0.76059525  0.01872947    -0.04300
C759        C  0.68833854  0.74415485  0.03086692    -0.05000
C760        C  0.72476646  0.70035838  0.02843368    -0.04900
C761        C  0.74827039  0.79210988  0.02721243    -0.30300
N762        N  0.75179557  0.80794324  0.98218783     0.16200
C763        C  0.72568584  0.79023479  0.44176753    -0.30300
H764        H  0.72538467  0.79552935  0.40194550     0.18100
C765        C  0.66263956  0.75212103  0.05027388    -0.29300
N766        N  0.63305230  0.73640776  0.51165198     0.14900
C767        C  0.64669314  0.72953032  0.46825261    -0.29300
C768        C  0.73783861  0.67025601  0.04537773    -0.29600
N769        N  0.74153448  0.64812928  0.00600897     0.15400
H770        H  0.74559450  0.66548902  0.08329694     0.18000
C771        C  0.73374004  0.66784226  0.46706110    -0.29600
H772        H  0.73491852  0.65597610  0.43022655     0.18000
H773        H  0.63706104  0.72826675  0.43107864     0.18000
H774        H  0.75207405  0.80406880  0.06360283     0.18100
H775        H  0.65809356  0.75598578  0.08948118     0.18000
C776        C  0.71143376  0.72815758  0.19924937     0.31900
C777        C  0.71639002  0.72483790  0.30255851     0.31900
C778        C  0.73226407  0.75405071  0.22409180    -0.04300
C779        C  0.68484991  0.73607100  0.22789276    -0.05000
C780        C  0.72090287  0.69291030  0.22184398    -0.04900
C781        C  0.73490938  0.75151120  0.27678418    -0.04300
C782        C  0.68735748  0.73503147  0.28028995    -0.05000
C783        C  0.72377361  0.69099040  0.27403808    -0.04900
C784        C  0.74755069  0.78128764  0.29411985    -0.30300
N785        N  0.75206986  0.80268172  0.25491070     0.16200
C786        C  0.74198731  0.78703836  0.21222058    -0.30300
H787        H  0.73964830  0.79987602  0.17617141     0.18100
C788        C  0.66149196  0.74357947  0.29815515    -0.29300
N789        N  0.64343045  0.74796448  0.25872182     0.14900
C790        C  0.65740172  0.74366275  0.21539270    -0.29300
C791        C  0.73549832  0.65845234  0.28498125    -0.29600
N792        N  0.73941718  0.64091498  0.24082322     0.15400
H793        H  0.74125844  0.64882940  0.32212296     0.18000
C794        C  0.73021662  0.66166017  0.20245052    -0.29600
H795        H  0.73132933  0.65491197  0.16311854     0.18000
H796        H  0.64820336  0.74464079  0.17785091     0.18000
H797        H  0.75137460  0.78822891  0.33303075     0.18100
H798        H  0.65561580  0.74662615  0.33679315     0.18000
C799        C  0.80698043  0.48335979  0.05686322     0.31900
C800        C  0.80676898  0.47651047  0.45678239     0.31900
C801        C  0.79480473  0.51237601  0.02259139    -0.04300
C802        C  0.83611666  0.47713666  0.03524926    -0.05000
C803        C  0.80176213  0.94527516  0.02502092    -0.04900
C804        C  0.79930919  0.51417177  0.47321916    -0.04300
C805        C  0.83597718  0.47035259  0.48117596    -0.05000
C806        C  0.78856445  0.94671137  0.47071455    -0.04900
C807        C  0.78445988  0.54210855  0.45257215    -0.30300
N808        N  0.77323432  0.55748410  0.98430341     0.16200
C809        C  0.78143113  0.54404433  0.02981469    -0.30300
H810        H  0.77725480  0.55563663  0.06594253     0.18100
C811        C  0.85026641  0.99470883  0.44280266    -0.29300
N812        N  0.88093845  0.99559465  0.99731832     0.14900
C813        C  0.86514034  0.99218371  0.03813823    -0.29300
C814        C  0.77727527  0.91501351  0.45734724    -0.29600
N815        N  0.78802653  0.89270659  0.00263949     0.15400
H816        H  0.77075048  0.90712075  0.41983150     0.18000
C817        C  0.79518458  0.91293784  0.04241743    -0.29600
H818        H  0.79578473  0.90442479  0.08106653     0.18000
H819        H  0.87261217  0.99454214  0.07674408     0.18000
H820        H  0.77590492  0.54373080  0.41476547     0.18100
H821        H  0.85451715  0.99676007  0.40337993     0.18000
C822        C  0.81463538  0.47485877  0.30891466     0.31900
C823        C  0.81070053  0.47334200  0.20557956     0.31900
C824        C  0.80184721  0.50733776  0.28323011    -0.04300
C825        C  0.84200544  0.47063302  0.28161147    -0.05000
C826        C  0.79504939  0.94290323  0.26594090    -0.04900
C827        C  0.79913448  0.50723543  0.23075356    -0.04300
C828        C  0.83990184  0.46950515  0.22945919    -0.05000
C829        C  0.79248784  0.94788807  0.21423292    -0.04900
C830        C  0.78590250  0.53901015  0.21833375    -0.30300
N831        N  0.78173664  0.55764080  0.26145853     0.16200
C832        C  0.79188791  0.53864660  0.30066150    -0.30300
H833        H  0.79202148  0.54720782  0.33924130     0.18100
C834        C  0.85352667  0.00159415  0.20334804    -0.29300
N835        N  0.87171170  0.00179604  0.24334267     0.14900
C836        C  0.85788509  0.99226574  0.28500016    -0.29300
C837        C  0.78199388  0.91752859  0.19386942    -0.29600
N838        N  0.77859631  0.89402296  0.23137351     0.15400
H839        H  0.77599891  0.91333335  0.15498906     0.18000
C840        C  0.78648432  0.90942702  0.27573462    -0.29600
H841        H  0.78550248  0.89787652  0.31268504     0.18000
H842        H  0.86695478  0.99001554  0.32241928     0.18000
H843        H  0.77956799  0.54807424  0.18132717     0.18100
H844        H  0.85871294  0.00810141  0.16522983     0.18000
O845        O  0.45850772  0.74657115  0.47174300    -0.69800
O846        O  0.54830242  0.74487901  0.95291452    -0.70100
O847        O  0.50923772  0.70380811  0.99095770    -0.69900
O848        O  0.49835703  0.78374309  0.43027564    -0.69900
O849        O  0.50788616  0.81054529  0.50074892    -0.69900
O850        O  0.51468354  0.72988451  0.06327456    -0.69900
O851        O  0.54466799  0.75893773  0.52703843    -0.69900
O852        O  0.47612575  0.77895218  0.03840842    -0.70000
V853        V  0.50929853  0.74911068  0.96120867     1.35200
V854        V  0.51531011  0.77370054  0.03081930     1.35200
C855        C  0.45981045  0.76712745  0.00459999     0.79400
C856        C  0.56478779  0.75553941  0.98723447     0.79400
C857        C  0.51190095  0.70192184  0.03811505     0.79300
C858        C  0.50356638  0.81180478  0.45380416     0.79300
O859        O  0.47245459  0.77802820  0.21630764    -0.69800
O860        O  0.55047862  0.77880322  0.20250374    -0.70100
O861        O  0.50982572  0.73533355  0.17488506    -0.69900
O862        O  0.51272338  0.82183735  0.24546970    -0.69900
O863        O  0.51964600  0.79221298  0.31464397    -0.69900
O864        O  0.51406806  0.70614153  0.24496266    -0.69900
O865        O  0.55580848  0.74865048  0.27149408    -0.69900
O866        O  0.47750757  0.75059269  0.28761375    -0.70000
V867        V  0.51151113  0.77790447  0.21110972     1.35200
V868        V  0.51667181  0.75003986  0.27839598     1.35200
C869        C  0.46165749  0.76433493  0.25406040     0.79400
C870        C  0.56640484  0.76351281  0.23429602     0.79400
C871        C  0.51119608  0.70626771  0.19778509     0.79300
C872        C  0.51663682  0.82140370  0.29259861     0.79300
O873        O  0.04795031  0.51108675  0.49253626    -0.69800
O874        O  0.97016856  0.49442240  0.94771408    -0.70100
O875        O  0.00338003  0.54507008  0.98380404    -0.69900
O876        O  0.01137924  0.46336157  0.45984339    -0.69900
O877        O  0.99063474  0.05127700  0.42753314    -0.69900
O878        O  0.01436652  0.94282205  0.00465801    -0.69900
O879        O  0.95780239  0.00224763  0.46314973    -0.69900
O880        O  0.05417198  0.98722373  0.97821504    -0.70000
V881        V  0.00923910  0.50076117  0.95184955     1.35200
V882        V  0.01517331  0.98473940  0.96569944     1.35200
C883        C  0.06340055  0.00488890  0.01512046     0.79400
C884        C  0.95898475  0.99590969  0.97830609     0.79400
C885        C  0.01030132  0.94583403  0.05114520     0.79300
C886        C  0.99208971  0.07856380  0.45444722     0.79300
O887        O  0.97413353  0.50998176  0.30069799    -0.69800
O888        O  0.05071439  0.52208295  0.27869360    -0.70100
O889        O  0.00385606  0.55499225  0.24676651    -0.69900
O890        O  0.02127557  0.47735309  0.33200291    -0.69900
O891        O  0.00435022  0.04991699  0.32435824    -0.69900
O892        O  0.00837838  0.96045376  0.26249208    -0.69900
O893        O  0.04484460  0.01094288  0.28446734    -0.69900
O894        O  0.96747602  0.99959621  0.30300012    -0.70000
V895        V  0.01245761  0.51535802  0.28836766     1.35200
V896        V  0.00605186  0.00583066  0.29225249     1.35200
C897        C  0.94974979  0.00972741  0.26985218     0.79400
C898        C  0.05363767  0.02480066  0.24498540     0.79400
C899        C  0.00425663  0.95811145  0.21558753     0.79300
C900        C  0.99895676  0.07750446  0.29934303     0.79300
C901        C  0.29846962  0.77393109  0.42161914     0.31900
C902        C  0.31153503  0.75398420  0.02609509     0.31900
C903        C  0.28492096  0.74394620  0.44969502    -0.04300
C904        C  0.32751939  0.77491289  0.44856094    -0.05000
C905        C  0.28352104  0.80638817  0.44301339    -0.04900
C906        C  0.30165442  0.72029765  0.00042817    -0.04300
C907        C  0.33926546  0.76020361  0.00054041    -0.05000
C908        C  0.29197923  0.78186136  0.00092450    -0.04900
C909        C  0.29172662  0.68872420  0.01600635    -0.30300
N910        N  0.26720370  0.69502650  0.47904841     0.16200
C911        C  0.27386764  0.71220007  0.43655576    -0.30300
H912        H  0.27166826  0.70175330  0.39881469     0.18100
C913        C  0.36690491  0.76231667  0.01532243    -0.29300
N914        N  0.37110650  0.76722884  0.47838434     0.14900
C915        C  0.35456568  0.76654456  0.43629391    -0.29300
C916        C  0.27555988  0.80966338  0.01629387    -0.29600
N917        N  0.26277615  0.85701791  0.46350437     0.15400
H918        H  0.27150137  0.81692433  0.05463207     0.18000
C919        C  0.27045847  0.83642623  0.42429309    -0.29600
H920        H  0.26715463  0.84314724  0.38515798     0.18000
H921        H  0.36184842  0.75833060  0.39998792     0.18000
H922        H  0.28889671  0.68113127  0.05459696     0.18100
H923        H  0.37513373  0.76082277  0.05349515     0.18000
C924        C  0.31122199  0.77545159  0.17213930     0.31900
C925        C  0.31351943  0.77585635  0.27539583     0.31900
C926        C  0.29844209  0.74348303  0.19798517    -0.04300
C927        C  0.34033213  0.77644540  0.19682375    -0.05000
C928        C  0.29624709  0.80618193  0.19785556    -0.04900
C929        C  0.29994683  0.74355892  0.25069286    -0.04300
C930        C  0.34153618  0.77651149  0.24915336    -0.05000
C931        C  0.29741832  0.80653152  0.25019257    -0.04900
C932        C  0.28885553  0.71258920  0.26659101    -0.30300
N933        N  0.28032853  0.69392475  0.22537581     0.16200
C934        C  0.28595776  0.71266892  0.18360667    -0.30300
H935        H  0.28116220  0.70425219  0.14555893     0.18100
C936        C  0.36922191  0.77526620  0.26384604    -0.29300
N937        N  0.38466965  0.77463719  0.22183481     0.14900
C938        C  0.36724357  0.77560072  0.18080999    -0.29300
C939        C  0.28387296  0.83672573  0.26531474    -0.29600
N940        N  0.27428764  0.85436979  0.22360596     0.15400
H941        H  0.28159772  0.84515186  0.30368242     0.18000
C942        C  0.28177579  0.83585229  0.18239812    -0.29600
H943        H  0.27723964  0.84373622  0.14392358     0.18000
H944        H  0.37375407  0.77502658  0.14223339     0.18000
H945        H  0.28742438  0.70442325  0.30527342     0.18100
H946        H  0.37741860  0.77476614  0.30212110     0.18000
C947        C  0.21262135  0.00404677  0.05870620     0.31900
C948        C  0.19949739  0.03142000  0.45528152     0.31900
C949        C  0.22193070  0.96921980  0.03507614    -0.04300
C950        C  0.18443005  0.01183398  0.03040961    -0.05000
C951        C  0.22994884  0.53962814  0.04269069    -0.04900
C952        C  0.21213738  0.99671614  0.47633136    -0.04300
C953        C  0.17153504  0.03364821  0.48228164    -0.05000
C954        C  0.22597079  0.55454645  0.49321088    -0.04900
C955        C  0.22174536  0.96471537  0.45828349    -0.30300
N956        N  0.22877752  0.94374891  0.49835324     0.16200
C957        C  0.23125791  0.93678979  0.05178085    -0.30300
H958        H  0.23388864  0.92856723  0.09054510     0.18100
C959        C  0.14362237  0.03478138  0.46830528    -0.29300
N960        N  0.13922255  0.51772182  0.50162239     0.14900
C961        C  0.15670425  0.00627460  0.04090000    -0.29300
C962        C  0.23711572  0.58555478  0.47796992    -0.29600
N963        N  0.24068492  0.60664700  0.51898725     0.15400
H964        H  0.24162280  0.59218793  0.43963735     0.18000
C965        C  0.24556834  0.56795203  0.05696339    -0.29600
H966        H  0.25022778  0.57641353  0.09507747     0.18000
H967        H  0.15376454  0.50335694  0.10136859     0.18000
H968        H  0.22272112  0.95702992  0.41929009     0.18100
H969        H  0.15277041  0.51354893  0.42486049     0.18000
C970        C  0.20831184  0.02434524  0.30711613     0.31900
C971        C  0.20076151  0.01909750  0.20444295     0.31900
C972        C  0.21994520  0.99088746  0.28245364    -0.04300
C973        C  0.17766543  0.02459800  0.28690456    -0.05000
C974        C  0.22531756  0.56224783  0.29176224    -0.04900
C975        C  0.21590392  0.98793122  0.23058422    -0.04300
C976        C  0.17412598  0.02270429  0.23461290    -0.05000
C977        C  0.22473435  0.56094408  0.23937170    -0.04900
C978        C  0.22733321  0.95608167  0.21664560    -0.30300
N979        N  0.23857222  0.94000379  0.25838843     0.16200
C980        C  0.23404906  0.96104802  0.29862150    -0.30300
H981        H  0.24078995  0.95506539  0.33682302     0.18100
C982        C  0.14598303  0.02156093  0.22344145    -0.29300
N983        N  0.13754839  0.53158614  0.26671954     0.14900
C984        C  0.15123776  0.02288449  0.30596293    -0.29300
C985        C  0.23815520  0.59031156  0.22300814    -0.29600
N986        N  0.24683655  0.60917259  0.26399648     0.15400
H987        H  0.24082119  0.59744398  0.18418135     0.18000
C988        C  0.23901587  0.59215045  0.30594902    -0.29600
H989        H  0.24257683  0.60130480  0.34408625     0.18000
H990        H  0.14771504  0.53545906  0.34604018     0.18000
H991        H  0.22729690  0.94559796  0.17895179     0.18100
H992        H  0.14523370  0.52765685  0.18681358     0.18000
C993        C  0.19596117  0.03623429  0.39838687    -0.14500
C994        C  0.21445575  0.02545297  0.36416042    -0.29700
H995        H  0.17735633  0.05012160  0.38532049     0.14500
H996        H  0.19481266  0.56043048  0.38772927     0.15100
C997        C  0.19579127  0.01668026  0.14762593    -0.14500
C998        C  0.21548887  0.00539745  0.11602383    -0.29700
H999        H  0.19160490  0.55060771  0.14144908     0.14500
H1000       H  0.23593686  0.99842684  0.13186300     0.15100
C1001       C  0.26735953  0.66005004  0.22372412    -0.14500
C1002       C  0.26090562  0.64231294  0.26543814    -0.29700
H1003       H  0.26232218  0.64904261  0.18706199     0.14500
H1004       H  0.26585341  0.65338532  0.30208905     0.15100
C1005       C  0.25333271  0.90674427  0.26162632    -0.14500
C1006       C  0.25897911  0.88721915  0.22083516    -0.29700
H1007       H  0.26043069  0.89779699  0.29855425     0.14500
H1008       H  0.25225033  0.89642420  0.18385752     0.15100
C1009       C  0.25109199  0.64192958  0.52051464    -0.14500
C1010       C  0.25636132  0.66001426  0.47850208    -0.29700
H1011       H  0.27845417  0.62482091  0.05077024     0.14500
H1012       H  0.25255068  0.64800868  0.44207154     0.15100
C1013       C  0.24982713  0.89148043  0.45895745    -0.14500
C1014       C  0.23952505  0.90823733  0.49919218    -0.29700
H1015       H  0.24894554  0.90413295  0.42242819     0.14500
H1016       H  0.25729277  0.87272701  0.05039973     0.15100
C1017       C  0.29580803  0.77098010  0.36421219    -0.14500
C1018       C  0.31639518  0.77776174  0.33251584    -0.29700
H1019       H  0.27551318  0.76436488  0.34824509     0.14500
H1020       H  0.33567990  0.78793766  0.34756237     0.15100
C1021       C  0.31317671  0.75099038  0.08338623    -0.14500
C1022       C  0.31083750  0.77837650  0.11493723    -0.29700
H1023       H  0.31684416  0.72511522  0.09922142     0.14500
H1024       H  0.31043505  0.80456785  0.09930802     0.15100
C1025       C  0.09263019  0.51113869  0.23574814    -0.14500
C1026       C  0.10798054  0.52890551  0.26970384    -0.29700
H1027       H  0.09047895  0.03776496  0.20133397     0.14500
H1028       H  0.09828643  0.53928327  0.30319551     0.15100
C1029       C  0.11234490  0.49607743  0.02536162    -0.14500
C1030       C  0.09429690  0.50168452  0.98630103    -0.29700
H1031       H  0.10486877  0.98747522  0.95487965     0.14500
H1032       H  0.10338120  0.49795601  0.56883063     0.15100
C1033       C  0.00064442  0.39461437  0.42028124    -0.11400
C1034       C  0.99029741  0.11261633  0.42911850     0.10700
C1035       C  0.01572154  0.12230761  0.40905585    -0.11400
C1036       C  0.01857662  0.12029431  0.35692216    -0.11400
C1037       C  0.99552710  0.11050890  0.32678860     0.10700
C1038       C  0.00164757  0.40264006  0.36906762    -0.11400
H1039       H  0.98043221  0.39031682  0.43602356     0.14700
H1040       H  0.03451390  0.12156966  0.43259981     0.14700
H1041       H  0.03937573  0.11816389  0.34232452     0.14700
H1042       H  0.98239263  0.40341080  0.34680578     0.14700
C1043       C  0.98514618  0.91019034  0.10817375    -0.11400
C1044       C  0.01070821  0.91608519  0.08572729     0.10700
C1045       C  0.02095237  0.58987052  0.08886994    -0.11400
C1046       C  0.01975986  0.59017389  0.14133405    -0.11400
C1047       C  0.00685272  0.92505507  0.18814233     0.10700
C1048       C  0.98312107  0.91520350  0.15999637    -0.11400
H1049       H  0.96608757  0.91063996  0.08535523     0.14700
H1050       H  0.04121861  0.59102271  0.07212351     0.14700
H1051       H  0.03911626  0.59181126  0.16309390     0.14700
H1052       H  0.96261177  0.91916337  0.17525166     0.14700
C1053       C  0.43123907  0.76444129  0.25854136    -0.14500
C1054       C  0.41446648  0.77376171  0.21928804    -0.29700
H1055       H  0.42269335  0.75615792  0.29380236     0.14500
H1056       H  0.42352596  0.78013799  0.18352063     0.15100
C1057       C  0.42936465  0.77000415  0.00946908    -0.14500
C1058       C  0.41218812  0.76272225  0.97024814    -0.29700
H1059       H  0.42111812  0.77834805  0.04520332     0.14500
H1060       H  0.40856013  0.74687236  0.44418451     0.15100
C1061       C  0.53769956  0.85642398  0.35821442    -0.11400
C1062       C  0.51513610  0.85292431  0.32392564     0.10700
C1063       C  0.48832637  0.85937001  0.34182839    -0.11400
C1064       C  0.48369450  0.85344966  0.39273855    -0.11400
C1065       C  0.50631571  0.84400029  0.42479480     0.10700
C1066       C  0.53329052  0.85117144  0.40937964    -0.11400
H1067       H  0.55880256  0.85380800  0.34514787     0.14700
H1068       H  0.47050129  0.85910003  0.31591572     0.14700
H1069       H  0.46257119  0.84916276  0.40427226     0.14700
H1070       H  0.55112534  0.84510560  0.43392273     0.14700
C1071       C  0.53555050  0.66090393  0.09326450    -0.11400
C1072       C  0.51096114  0.66880280  0.06547855     0.10700
C1073       C  0.48562883  0.66426529  0.08935515    -0.11400
C1074       C  0.48519133  0.66811300  0.14158271    -0.11400
C1075       C  0.51030046  0.67405046  0.16819581     0.10700
C1076       C  0.53533425  0.66440403  0.14556211    -0.11400
H1077       H  0.55545242  0.66172249  0.07514654     0.14700
H1078       H  0.46616061  0.66769709  0.06816706     0.14700
H1079       H  0.46547295  0.67413263  0.15876719     0.14700
H1080       H  0.55502342  0.66751009  0.16585414     0.14700
C1081       C  0.90067897  0.01046053  0.23968398    -0.14500
C1082       C  0.91979618  0.00352462  0.27648637    -0.29700
H1083       H  0.90741891  0.02147257  0.20450439     0.14500
H1084       H  0.92112107  0.49875000  0.31288653     0.15100
C1085       C  0.81869150  0.48084099  0.36533617    -0.14500
C1086       C  0.80295496  0.46741662  0.40107399    -0.29700
H1087       H  0.83383061  0.50034992  0.37656095     0.14500
H1088       H  0.76983536  0.99300926  0.37524476     0.15100
C1089       C  0.81151623  0.46765865  0.14870396    -0.14500
C1090       C  0.80546213  0.49158898  0.11291502    -0.29700
H1091       H  0.81883959  0.44194508  0.13658737     0.14500
H1092       H  0.83085536  0.95922856  0.12102417     0.15100
C1093       C  0.92870025  0.99244610  0.96794083    -0.14500
C1094       C  0.91010542  0.00335767  0.00156913    -0.29700
H1095       H  0.92064317  0.47007949  0.57071430     0.14500
H1096       H  0.91762480  0.01532898  0.03638384     0.15100
C1097       C  0.76882796  0.59161714  0.26821452    -0.14500
C1098       C  0.75234838  0.60702908  0.23302106    -0.29700
H1099       H  0.77200955  0.60454212  0.30424616     0.14500
H1100       H  0.74922229  0.59435075  0.19679535     0.15100
C1101       C  0.76760187  0.85937001  0.22340306    -0.14500
C1102       C  0.76300662  0.83739540  0.26164974    -0.29700
H1103       H  0.76298730  0.85109486  0.18508619     0.14500
H1104       H  0.76778343  0.84570800  0.29984211     0.15100
C1105       C  0.61398297  0.75181536  0.26467460    -0.14500
C1106       C  0.59660883  0.76260790  0.22743602    -0.24900
H1107       H  0.60567932  0.74551096  0.30110818     0.14500
H1108       H  0.60455176  0.77081424  0.19163119     0.15100
C1109       C  0.75610472  0.61487390  0.01181960    -0.14500
C1110       C  0.75865092  0.59060670  0.97512903    -0.29700
H1111       H  0.76536322  0.60947785  0.04864574     0.14500
H1112       H  0.75276502  0.60193300  0.44546908     0.15100
C1113       C  0.77908747  0.85745468  0.00806255    -0.14500
C1114       C  0.76251062  0.84213527  0.97374856    -0.29700
H1115       H  0.78459257  0.84389585  0.04287602     0.14500
H1116       H  0.74582328  0.85729635  0.43206011     0.15100
C1117       C  0.72004394  0.72408489  0.36014970    -0.14500
C1118       C  0.69923395  0.71884292  0.39260675    -0.29700
H1119       H  0.74012069  0.73193405  0.37572903     0.14500
H1120       H  0.67962829  0.70863491  0.37888643     0.15100
C1121       C  0.72329745  0.74078720  0.10777582    -0.14500
C1122       C  0.70721416  0.72582257  0.14210939    -0.29700
H1123       H  0.74088137  0.75609785  0.12022770     0.14500
H1124       H  0.69058705  0.70904248  0.12853385     0.15100
C1125       C  0.59505063  0.75169361  0.98103451    -0.14500
C1126       C  0.61382808  0.75850561  0.01812870    -0.29700
H1127       H  0.60176933  0.74177873  0.94508375     0.14500
H1128       H  0.59678984  0.75260828  0.55420361     0.15100
C1129       C  0.71012278  0.73048657  0.94910501     0.31900
C1130       C  0.70874889  0.73731715  0.55055275     0.31900
C1131       C  0.73111299  0.75767619  0.96679713    -0.04300
C1132       C  0.68437842  0.74077961  0.97910595    -0.05000
C1133       C  0.72069797  0.69688395  0.97633980    -0.04900
C1134       C  0.71923613  0.76596681  0.51629533    -0.04300
C1135       C  0.67849985  0.73330770  0.53084856    -0.05000
C1136       C  0.72338479  0.70447625  0.52965991    -0.04900
C1137       C  0.73134541  0.79779590  0.52352251    -0.30300
N1138       N  0.73568075  0.81227983  0.47790503     0.16200
C1139       C  0.74042025  0.78781650  0.94558794    -0.30300
H1140       H  0.73656279  0.79626523  0.90744280     0.18100
C1141       C  0.65238884  0.73891265  0.54977077    -0.29300
N1142       N  0.64333105  0.75303272  0.01190947     0.14900
C1143       C  0.65652589  0.74642132  0.96823888    -0.29300
C1144       C  0.74012952  0.67767996  0.54827813    -0.29600
N1145       N  0.74591879  0.65512210  0.51027353     0.15400
H1146       H  0.74782823  0.67489656  0.58650083     0.18000
C1147       C  0.73124725  0.66411385  0.96336436    -0.29600
H1148       H  0.73262135  0.65365399  0.92568288     0.18000
H1149       H  0.64671165  0.74521055  0.93124173     0.18000
H1150       H  0.73601958  0.80974327  0.55954082     0.18100
H1151       H  0.64784345  0.74602104  0.58811681     0.18000
C1152       C  0.71074772  0.72686801  0.69913192     0.31900
C1153       C  0.71773317  0.72210690  0.80183605     0.31900
C1154       C  0.72653109  0.75798901  0.72492679    -0.04300
C1155       C  0.68402374  0.72585170  0.72916533    -0.05000
C1156       C  0.72696244  0.69451317  0.71960501    -0.04900
C1157       C  0.73014909  0.75457665  0.77722681    -0.04300
C1158       C  0.68727043  0.72278635  0.78120091    -0.05000
C1159       C  0.73064080  0.69230044  0.77145999    -0.04900
C1160       C  0.74463098  0.78301195  0.79469426    -0.30300
N1161       N  0.74922154  0.80503443  0.75608167     0.16200
C1162       C  0.73834223  0.79015632  0.71314556    -0.30300
H1163       H  0.73881571  0.80217268  0.67656178     0.18100
C1164       C  0.66076084  0.71925585  0.79945652    -0.29300
N1165       N  0.64191621  0.72216392  0.76068136     0.14900
C1166       C  0.65595192  0.72560898  0.71740131    -0.29300
C1167       C  0.74383419  0.66076498  0.78210993    -0.29600
N1168       N  0.74815605  0.64358042  0.73800699     0.15400
H1169       H  0.74906203  0.65101253  0.81937367     0.18000
C1170       C  0.73753590  0.66377962  0.69992337    -0.29600
H1171       H  0.73672698  0.65592079  0.66101623     0.18000
H1172       H  0.64659522  0.72735815  0.68002633     0.18000
H1173       H  0.75170544  0.78733020  0.83286667     0.18100
H1174       H  0.65515801  0.71455858  0.83788241     0.18000
C1175       C  0.81140618  0.48981549  0.55798148     0.31900
C1176       C  0.80814859  0.47044276  0.95545618     0.31900
C1177       C  0.80206781  0.52092651  0.52474706    -0.04300
C1178       C  0.83828486  0.47729082  0.53297726    -0.05000
C1179       C  0.79311367  0.94654613  0.52244804    -0.04900
C1180       C  0.79495362  0.50596145  0.97109527    -0.04300
C1181       C  0.83680510  0.47047200  0.98362408    -0.05000
C1182       C  0.79953279  0.94440635  0.97290154    -0.04900
C1183       C  0.78079271  0.53395190  0.94837305    -0.30300
N1184       N  0.77941241  0.56605943  0.48918848     0.16200
C1185       C  0.78970732  0.55303391  0.53359821    -0.30300
H1186       H  0.78657299  0.56456899  0.57018409     0.18100
C1187       C  0.86450561  0.99127057  0.95509695    -0.29300
N1188       N  0.86968417  0.99753421  0.48050930     0.14900
C1189       C  0.85704043  0.99337966  0.52511905    -0.29300
C1190       C  0.79065237  0.91147019  0.95964617    -0.29600
N1191       N  0.77517080  0.89562008  0.49985863     0.15400
H1192       H  0.78703846  0.90177082  0.92181791     0.18000
C1193       C  0.78506800  0.91450841  0.53947994    -0.29600
H1194       H  0.78565859  0.90575400  0.57807792     0.18000
H1195       H  0.86732267  0.99309543  0.56176712     0.18000
H1196       H  0.77534957  0.53642683  0.90899670     0.18100
H1197       H  0.87167238  0.99396547  0.91720832     0.18000
C1198       C  0.82180712  0.47543214  0.80897983     0.31900
C1199       C  0.81903751  0.47626456  0.70546480     0.31900
C1200       C  0.80870864  0.50827002  0.78417140    -0.04300
C1201       C  0.84971053  0.47261439  0.78260213    -0.05000
C1202       C  0.80006131  0.94326425  0.76841269    -0.04900
C1203       C  0.80653133  0.50897666  0.73167895    -0.04300
C1204       C  0.84813253  0.47283222  0.73021549    -0.05000
C1205       C  0.79464032  0.94919850  0.71711398    -0.04900
C1206       C  0.79210903  0.53983866  0.71940728    -0.30300
N1207       N  0.78691341  0.55779915  0.76257317     0.16200
C1208       C  0.79735524  0.53887575  0.80183313    -0.30300
H1209       H  0.79698176  0.54715526  0.84051494     0.18100
C1210       C  0.86074444  0.99107645  0.69130536    -0.29300
N1211       N  0.88133145  0.98896867  0.72743791     0.14900
C1212       C  0.86945623  0.98143252  0.77198266    -0.29300
C1213       C  0.78119502  0.92032746  0.69804702    -0.29600
N1214       N  0.77845209  0.89641090  0.73528618     0.15400
H1215       H  0.77380439  0.91695792  0.65966611     0.18000
C1216       C  0.78987641  0.91022456  0.77861436    -0.29600
H1217       H  0.79093794  0.89743028  0.81486225     0.18000
H1218       H  0.88033114  0.97956220  0.80803874     0.18000
H1219       H  0.78519648  0.54835123  0.68248113     0.18100
H1220       H  0.86384955  0.99778211  0.65242734     0.18000
O1221       O  0.47017098  0.75250677  0.96658866    -0.69800
O1222       O  0.53641455  0.73363067  0.45508665    -0.70100
O1223       O  0.49599463  0.69614016  0.49694253    -0.69900
O1224       O  0.50902753  0.79288561  0.92878282    -0.69900
O1225       O  0.51655222  0.81887608  0.00060380    -0.69900
O1226       O  0.50325849  0.72346520  0.56781966    -0.69900
O1227       O  0.55465965  0.76923601  0.02617617    -0.69900
O1228       O  0.46642965  0.77438063  0.54185124    -0.70000
V1229       V  0.49753970  0.74061845  0.46485109     1.35200
V1230       V  0.50540502  0.76627061  0.53305918     1.35200
C1231       C  0.44913772  0.76284442  0.50933631     0.79400
C1232       C  0.55385624  0.74367050  0.48835463     0.79400
C1233       C  0.49874264  0.69526168  0.54419152     0.79300
C1234       C  0.51347153  0.82068666  0.95343920     0.79300
O1235       O  0.47164942  0.77011138  0.72289580    -0.69800
O1236       O  0.54965126  0.75869242  0.70720346    -0.70100
O1237       O  0.50472074  0.72162111  0.68207720    -0.69900
O1238       O  0.51647899  0.80804510  0.74846943    -0.69900
O1239       O  0.52147397  0.77960687  0.81904687    -0.69900
O1240       O  0.50681650  0.69331916  0.75304430    -0.69900
O1241       O  0.55294745  0.72941447  0.77719334    -0.69900
O1242       O  0.47516008  0.74382872  0.79523679    -0.70000
V1243       V  0.51073937  0.76403516  0.71654821     1.35200
V1244       V  0.51404166  0.73717344  0.78487516     1.35200
C1245       C  0.46004557  0.75866501  0.76151987     0.79400
C1246       C  0.56452125  0.74180646  0.73915007     0.79400
C1247       C  0.50345694  0.69307064  0.70584897     0.79300
C1248       C  0.52102472  0.80834699  0.79534986     0.79300
O1249       O  0.04826444  0.50815750  0.95239681    -0.69800
O1250       O  0.96879499  0.50101129  0.49575244    -0.70100
O1251       O  0.00501507  0.55008064  0.52738259    -0.69900
O1252       O  0.01462394  0.45772418  0.91780666    -0.69900
O1253       O  0.01651440  0.02516386  0.92499041    -0.69900
O1254       O  0.00255224  0.96036640  0.48168142    -0.69900
O1255       O  0.97639317  0.98106295  0.95015737    -0.69900
O1256       O  0.03570089  0.01021589  0.44582570    -0.70000
V1257       V  0.00835644  0.50578993  0.49509679     1.35200
V1258       V  0.99676907  0.00654635  0.45591871     1.35200
C1259       C  0.05118549  0.02188939  0.48100535     0.79400
C1260       C  0.94667980  0.01377307  0.50257332     0.79400
C1261       C  0.00553298  0.95684675  0.52862848     0.79300
C1262       C  0.01240920  0.05526082  0.94378979     0.79300
O1263       O  0.98690562  0.48659335  0.81042840    -0.69800
O1264       O  0.06278396  0.49821112  0.78085944    -0.70100
O1265       O  0.01681117  0.53891591  0.77342479    -0.69900
O1266       O  0.03337697  0.44676836  0.81819963    -0.69900
O1267       O  0.01609920  0.02920618  0.80097737    -0.69900
O1268       O  0.01908257  0.94240703  0.73160824    -0.69900
O1269       O  0.05628584  0.99205132  0.75767824    -0.69900
O1270       O  0.97877173  0.98034875  0.77582428    -0.70000
V1271       V  0.02488090  0.49210269  0.79430520     1.35200
V1272       V  0.01735500  0.98658062  0.76517996     1.35200
C1273       C  0.96082046  0.99238644  0.74438343     0.79400
C1274       C  0.06505607  0.00823212  0.71996092     0.79400
C1275       C  0.01433882  0.94212699  0.68474906     0.79300
C1276       C  0.01169334  0.05793149  0.77812979     0.79300
C1277       C  0.30973332  0.75416629  0.92268013     0.31900
C1278       C  0.29855177  0.77926389  0.52477116     0.31900
C1279       C  0.30066723  0.72028708  0.94813927    -0.04300
C1280       C  0.33821146  0.76026371  0.94807078    -0.05000
C1281       C  0.29114795  0.78204479  0.94817069    -0.04900
C1282       C  0.28493931  0.74637619  0.50202760    -0.04300
C1283       C  0.32756384  0.77843809  0.50112406    -0.05000
C1284       C  0.28364924  0.80896536  0.49510709    -0.04900
C1285       C  0.27382710  0.71571492  0.51938008    -0.30300
N1286       N  0.28477085  0.66943406  0.97465767     0.16200
C1287       C  0.28997403  0.68857482  0.93306928    -0.30300
H1288       H  0.28568062  0.68023960  0.89475461     0.18100
C1289       C  0.35488122  0.77411552  0.51844742    -0.29300
N1290       N  0.38237250  0.76370678  0.97329243     0.14900
C1291       C  0.36503566  0.76219485  0.93228251    -0.29300
C1292       C  0.27097940  0.84041697  0.50685914    -0.29600
N1293       N  0.26560653  0.82724039  0.97494166     0.15400
H1294       H  0.26904165  0.85084912  0.54438216     0.18000
C1295       C  0.27452191  0.81021549  0.93330974    -0.29600
H1296       H  0.27013881  0.81880079  0.89512034     0.18000
H1297       H  0.37165855  0.76093216  0.89383793     0.18000
H1298       H  0.27158651  0.70881332  0.55834718     0.18100
H1299       H  0.36211127  0.77381660  0.55728052     0.18000
C1300       C  0.31024272  0.77188657  0.67327145     0.31900
C1301       C  0.30982567  0.77579614  0.77658300     0.31900
C1302       C  0.29324879  0.74414483  0.69982473    -0.04300
C1303       C  0.33861438  0.76853098  0.70094428    -0.05000
C1304       C  0.29861369  0.80678808  0.69541382    -0.04900
C1305       C  0.29259143  0.74620686  0.75211928    -0.04300
C1306       C  0.33861657  0.77044021  0.75330671    -0.05000
C1307       C  0.29838203  0.80827944  0.74797793    -0.04900
C1308       C  0.27688244  0.71849373  0.76776298    -0.30300
N1309       N  0.26887422  0.69933871  0.72675695     0.16200
C1310       C  0.27855761  0.71506538  0.68521186    -0.30300
H1311       H  0.27588052  0.70529970  0.64725376     0.18100
C1312       C  0.36620977  0.77072886  0.76966796    -0.29300
N1313       N  0.38261166  0.76894950  0.72872155     0.14900
C1314       C  0.36590301  0.76786737  0.68681559    -0.29300
C1315       C  0.28818864  0.84086113  0.76131809    -0.29600
N1316       N  0.28253978  0.85977576  0.71878600     0.15400
H1317       H  0.28501586  0.84974938  0.79934887     0.18000
C1318       C  0.28911335  0.83943851  0.67861247    -0.29600
H1319       H  0.28760163  0.84854522  0.64020609     0.18000
H1320       H  0.37316476  0.76771779  0.64868310     0.18000
H1321       H  0.27184231  0.71260898  0.80608222     0.18100
H1322       H  0.37367733  0.77387686  0.80803919     0.18000
C1323       C  0.20203820  0.02561177  0.55853220     0.31900
C1324       C  0.21433270  0.00303121  0.95571982     0.31900
C1325       C  0.21336593  0.99432911  0.52875078    -0.04300
C1326       C  0.17298180  0.03078834  0.53443561    -0.05000
C1327       C  0.22278247  0.55671578  0.54507731    -0.04900
C1328       C  0.22267504  0.96870709  0.98285196    -0.04300
C1329       C  0.18570755  0.01137646  0.97751814    -0.05000
C1330       C  0.22904936  0.53822399  0.99030207    -0.04900
C1331       C  0.23226046  0.93598314  0.96895790    -0.30300
N1332       N  0.23726515  0.91659193  0.01121570     0.16200
C1333       C  0.22351424  0.96164434  0.54117367    -0.30300
H1334       H  0.22656975  0.95134153  0.57887392     0.18100
C1335       C  0.15918746  0.00652194  0.95847808    -0.29300
N1336       N  0.14193130  0.50258176  0.02210873     0.14900
C1337       C  0.14616203  0.03059246  0.55095831    -0.29300
C1338       C  0.24533704  0.56526461  0.97426421    -0.29600
N1339       N  0.25440761  0.58382374  0.01494855     0.15400
H1340       H  0.25134398  0.57033513  0.93625032     0.18000
C1341       C  0.23200350  0.58917215  0.56000980    -0.29600
H1342       H  0.23158496  0.59982743  0.59766209     0.18000
H1343       H  0.14426778  0.52304047  0.58287209     0.18000
H1344       H  0.23621468  0.92749669  0.93100420     0.18100
H1345       H  0.14919446  0.50019661  0.94173945     0.18000
C1346       C  0.21403016  0.02639272  0.81025371     0.31900
C1347       C  0.21518278  0.03060060  0.70717637     0.31900
C1348       C  0.22944937  0.99586066  0.78342179    -0.04300
C1349       C  0.18566427  0.02754691  0.78225545    -0.05000
C1350       C  0.22297294  0.56225862  0.79343487    -0.04900
C1351       C  0.22962164  0.99786422  0.73081000    -0.04300
C1352       C  0.18585741  0.02977122  0.72987262    -0.05000
C1353       C  0.22426409  0.56035303  0.74126093    -0.04900
C1354       C  0.24381671  0.96847846  0.71371170    -0.30300
N1355       N  0.25266466  0.94908519  0.75427114     0.16200
C1356       C  0.24463938  0.96598697  0.79654520    -0.30300
H1357       H  0.25007814  0.95685014  0.83398821     0.18100
C1358       C  0.15855282  0.02503520  0.71297702    -0.29300
N1359       N  0.14911719  0.50245325  0.76615001     0.14900
C1360       C  0.15881224  0.02128015  0.79559513    -0.29300
C1361       C  0.23381609  0.59211112  0.72498159    -0.29600
N1362       N  0.23817414  0.61319646  0.76574980     0.15400
H1363       H  0.23905319  0.59824177  0.68683984     0.18000
C1364       C  0.23183955  0.59502472  0.80758237    -0.29600
H1365       H  0.23505398  0.60436014  0.84572223     0.18000
H1366       H  0.15756167  0.51018084  0.84564567     0.18000
H1367       H  0.24746257  0.96200767  0.67482496     0.18100
H1368       H  0.15749919  0.50244354  0.68636833     0.18000
C1369       C  0.21547441  0.00039503  0.89863624    -0.14500
C1370       C  0.21181620  0.02788608  0.86750952    -0.29700
H1371       H  0.21846223  0.97468992  0.88283153     0.14500
H1372       H  0.21470302  0.55748144  0.89267488     0.15100
C1373       C  0.21756438  0.03498480  0.65037350    -0.14500
C1374       C  0.20157623  0.01882599  0.61539215    -0.29700
H1375       H  0.24397092  0.51318419  0.64861643     0.14500
H1376       H  0.18740317  0.99901743  0.62779303     0.15100
C1377       C  0.25437762  0.66652643  0.72558797    -0.14500
C1378       C  0.25057402  0.64734843  0.76722158    -0.29700
H1379       H  0.24747040  0.65649329  0.68924816     0.14500
H1380       H  0.25741934  0.65734165  0.80360002     0.15100
C1381       C  0.26733516  0.91562871  0.75567577    -0.14500
C1382       C  0.27045226  0.89481707  0.71509162    -0.29700
H1383       H  0.27491651  0.90635805  0.79213589     0.14500
H1384       H  0.26307710  0.90404060  0.67843051     0.15100
C1385       C  0.26982348  0.61579069  0.01507089    -0.14500
C1386       C  0.27202078  0.63559304  0.97350654    -0.29700
H1387       H  0.25447244  0.65404391  0.55702458     0.14500
H1388       H  0.26329059  0.62661165  0.93782852     0.15100
C1389       C  0.25079734  0.86048036  0.97356816    -0.14500
C1390       C  0.24903255  0.88158479  0.01417153    -0.29700
H1391       H  0.24231576  0.86940117  0.93751439     0.14500
H1392       H  0.24010479  0.89511255  0.53528265     0.15100
C1393       C  0.31003467  0.75167020  0.86538770    -0.14500
C1394       C  0.31000387  0.77936259  0.83395469    -0.29700
H1395       H  0.31163163  0.72559327  0.84943217     0.14500
H1396       H  0.31008626  0.80552487  0.84989067     0.15100
C1397       C  0.29661534  0.78402045  0.58162281    -0.14500
C1398       C  0.31193388  0.76609002  0.61635312    -0.29700
H1399       H  0.28099135  0.80232313  0.59441826     0.14500
H1400       H  0.32564034  0.74510535  0.60367893     0.15100
C1401       C  0.10256037  0.49042261  0.73073205    -0.14500
C1402       C  0.11960412  0.49900438  0.76935736    -0.29700
H1403       H  0.10221166  0.02579363  0.67983454     0.14500
H1404       H  0.11084772  0.50331755  0.80618218     0.15100
C1405       C  0.10942332  0.51434497  0.49464336    -0.14500
C1406       C  0.09354583  0.50460263  0.53282252    -0.29700
H1407       H  0.08986895  0.03608906  0.55104686     0.14500
H1408       H  0.10204327  0.51193524  0.95145921     0.15100
C1409       C  0.99946844  0.38577944  0.88282257    -0.11400
C1410       C  0.01217999  0.08564783  0.91066579     0.10700
C1411       C  0.03711177  0.09230346  0.88658714    -0.11400
C1412       C  0.03662662  0.09586844  0.83436724    -0.11400
C1413       C  0.01149146  0.09019152  0.80770059     0.10700
C1414       C  0.00463292  0.37772039  0.83249046    -0.11400
H1415       H  0.97812684  0.39002361  0.89390141     0.14700
H1416       H  0.05695945  0.08750423  0.90601105     0.14700
H1417       H  0.05620627  0.09332186  0.81528271     0.14700
H1418       H  0.98689478  0.37641386  0.80649226     0.14700
C1419       C  0.98585104  0.91118605  0.57899724    -0.11400
C1420       C  0.00898881  0.92265709  0.55295594     0.10700
C1421       C  0.02630805  0.59363952  0.62716285    -0.11400
C1422       C  0.02880497  0.59191114  0.67962573    -0.11400
C1423       C  0.01483139  0.91011788  0.65431843     0.10700
C1424       C  0.98904153  0.90355363  0.63028925    -0.11400
H1425       H  0.96499152  0.91554705  0.56334675     0.14700
H1426       H  0.04520762  0.59450794  0.60593620     0.14700
H1427       H  0.04954740  0.59147582  0.69677459     0.14700
H1428       H  0.97042593  0.90259912  0.65229424     0.14700
C1429       C  0.42946144  0.76144967  0.76664002    -0.14500
C1430       C  0.41256554  0.76998360  0.72714203    -0.29700
H1431       H  0.42070541  0.75394631  0.80211257     0.14500
H1432       H  0.42174106  0.77554524  0.69118798     0.15100
C1433       C  0.41872165  0.76867982  0.51468171    -0.14500
C1434       C  0.40055470  0.75914780  0.47788803    -0.29700
H1435       H  0.41139286  0.78223567  0.54783248     0.14500
H1436       H  0.42098780  0.75613721  0.93413375     0.15100
C1437       C  0.54737801  0.84491787  0.85446518    -0.11400
C1438       C  0.52328679  0.84091617  0.82403823     0.10700
C1439       C  0.49803974  0.85508958  0.84091513    -0.11400
C1440       C  0.49544006  0.86200117  0.89225598    -0.11400
C1441       C  0.51780148  0.85286816  0.92507636     0.10700
C1442       C  0.54458612  0.85322373  0.90534156    -0.11400
H1443       H  0.56734551  0.83516248  0.84187939     0.14700
H1444       H  0.47924587  0.85341669  0.81757150     0.14700
H1445       H  0.47465807  0.86491006  0.90670805     0.14700
H1446       H  0.56264074  0.84924355  0.93020572     0.14700
C1447       C  0.52062843  0.65094132  0.59756833    -0.11400
C1448       C  0.49600049  0.66317918  0.57338888     0.10700
C1449       C  0.47111389  0.66132903  0.59955441    -0.11400
C1450       C  0.47246518  0.66014554  0.65209452    -0.11400
C1451       C  0.49866531  0.66110201  0.67675326     0.10700
C1452       C  0.52187892  0.64944663  0.65010299    -0.11400
H1453       H  0.54001922  0.65067899  0.57770814     0.14700
H1454       H  0.45155272  0.66928000  0.58125501     0.14700
H1455       H  0.45390943  0.66734944  0.67226109     0.14700
H1456       H  0.54223260  0.64814093  0.66873755     0.14700
C1457       C  0.91045235  0.99517020  0.71869513    -0.14500
C1458       C  0.93081215  0.98714512  0.75294470    -0.29700
H1459       H  0.91606361  0.00575618  0.68254072     0.14500
H1460       H  0.93265961  0.48244331  0.82253451     0.15100
C1461       C  0.82399539  0.47906368  0.86632528    -0.14500
C1462       C  0.80769665  0.46275878  0.89910889    -0.29700
H1463       H  0.83813993  0.49873230  0.88097039     0.14500
H1464       H  0.78116898  0.97836685  0.87574871     0.15100
C1465       C  0.81947140  0.47234165  0.64828115    -0.14500
C1466       C  0.81338359  0.49750333  0.61416457    -0.29700
H1467       H  0.82542831  0.44659176  0.63421910     0.14500
H1468       H  0.82649352  0.95581279  0.61230522     0.15100
C1469       C  0.91658330  0.01135747  0.50986992    -0.14500
C1470       C  0.89895028  0.00138633  0.47274878    -0.29700
H1471       H  0.91743245  0.48148317  0.94279770     0.14500
H1472       H  0.90678051  0.99628236  0.43543381     0.15100
C1473       C  0.77280640  0.59109653  0.76898172    -0.14500
C1474       C  0.76138588  0.60976644  0.73062303    -0.29700
H1475       H  0.77168966  0.60126312  0.80695021     0.14500
H1476       H  0.76245244  0.59972876  0.69254763     0.15100
C1477       C  0.76542453  0.86264936  0.72699329    -0.14500
C1478       C  0.76298323  0.83840041  0.76342344    -0.29700
H1479       H  0.75714400  0.85695491  0.68955873     0.14500
H1480       H  0.77111478  0.84429977  0.80087792     0.15100
C1481       C  0.61217001  0.72296555  0.76652828    -0.14500
C1482       C  0.59468341  0.73733368  0.73160622    -0.24900
H1483       H  0.60399149  0.71409629  0.80190390     0.14500
H1484       H  0.60278912  0.74782633  0.69722290     0.15100
C1485       C  0.76213530  0.62325684  0.51702369    -0.14500
C1486       C  0.76355926  0.59814986  0.48146602    -0.29700
H1487       H  0.77308113  0.61947454  0.55287072     0.14500
H1488       H  0.75000806  0.59597425  0.93773842     0.15100
C1489       C  0.76355850  0.86150019  0.50538293    -0.14500
C1490       C  0.74848969  0.84544141  0.46894025    -0.29700
H1491       H  0.76666922  0.84897051  0.54167463     0.14500
H1492       H  0.75698272  0.85550793  0.93877433     0.15100
C1493       C  0.72306949  0.71894294  0.85861600    -0.14500
C1494       C  0.70475510  0.73037518  0.89260350    -0.29700
H1495       H  0.74316752  0.70858684  0.87193636     0.14500
H1496       H  0.68619901  0.74425196  0.87938125     0.15100
C1497       C  0.71352523  0.74480353  0.60654138    -0.14500
C1498       C  0.70490561  0.72337391  0.64252161    -0.29700
H1499       H  0.72502809  0.76764491  0.61718542     0.14500
H1500       H  0.69346701  0.70034376  0.63056583     0.15100
C1501       C  0.58413590  0.73734001  0.48132716    -0.14500
C1502       C  0.60354560  0.74312212  0.51788118    -0.29700
H1503       H  0.59035433  0.72674919  0.44540766     0.14500
H1504       H  0.60663912  0.76706289  0.05461489     0.15100
loop_ 
_geom_bond_atom_site_label_1 
_geom_bond_atom_site_label_2 
_geom_bond_distance 
_geom_bond_site_symmetry_2 
_ccdc_geom_bond_type 
C1            C3   1.535       .  S
C1            C5   1.554       .  S
C1            C4   1.534       .  S
C1          C366   1.534       .  S
C2            C6   1.547       .  S
C2            C8   1.549       .  S
C2            C7   1.558       .  S
C2          C369   1.538       .  S
C3           C11   1.376       .  A
C3          C382   1.402       .  A
C4           C15   1.372       .  A
C4          C383   1.392       .  A
C5           C19   1.388       .  A
C5          C384   1.401       .  A
C6            C9   1.384       .  A
C6          C379   1.397   1_554  A
C7           C13   1.391       .  A
C7          C380   1.400       .  A
C8           C16   1.383       .  A
C8          C381   1.393   1_554  A
C9           N10   1.367       .  A
C9           H22   1.081       .  S
N10         C387   1.356   1_554  A
N10         C362   1.446   1_554  S
C11         N386   1.350       .  A
C11          H12   1.080       .  S
C13         N390   1.362       .  A
C13          H23   1.079       .  S
N14          C15   1.361       .  A
N14         C389   1.359       .  A
N14         C750   1.444       .  S
C15          H21   1.081       .  S
C16          N17   1.361       .  A
C16          H18   1.079       .  S
N17         C395   1.360   1_554  A
N17         C357   1.445       .  S
C19         N393   1.366       .  A
C19          H20   1.078       .  S
C24          C26   1.541       .  S
C24          C28   1.535       .  S
C24          C27   1.541       .  S
C24         C370   1.532       .  S
C25          C29   1.538       .  S
C25          C31   1.535       .  S
C25          C30   1.541       .  S
C25         C365   1.530       .  S
C26          C34   1.377       .  A
C26          C29   1.397       .  A
C27          C38   1.377       .  A
C27          C30   1.396       .  A
C28          C42   1.375       .  A
C28          C31   1.393       .  A
C29          C32   1.376       .  A
C30          C36   1.379       .  A
C31          C39   1.374       .  A
C32          N33   1.358       .  A
C32          H45   1.079       .  S
N33          C34   1.367       .  A
N33         C350   1.449       .  S
C34          H35   1.080       .  S
C36          N37   1.360       .  A
C36          H46   1.082       .  S
N37          C38   1.363       .  A
N37         C353   1.446       .  S
C38          H44   1.080       .  S
C39          N40   1.362       .  A
C39          H41   1.081       .  S
N40          C42   1.356       .  A
N40         C346   1.440       .  S
C42          H43   1.078       .  S
C47          C49   1.538   1_565  S
C47          C50   1.524       .  S
C47         C803   1.519       .  S
C47         C338   1.525       .  S
C48          C52   1.541   1_565  S
C48          C53   1.538       .  S
C48         C806   1.521       .  S
C48         C334   1.520       .  S
C49          C57   1.384       .  A
C49         C428   1.407   1_554  A
C50         C813   1.365       .  A
C50         C429   1.403   1_554  A
C51         C799   1.538       .  S
C51          C65   1.376       .  A
C51         C430   1.392   1_554  A
C52          C55   1.374       .  A
C52         C425   1.413       .  A
C53         C426   1.392       .  A
C53         C811   1.375       .  A
C54         C800   1.526       .  S
C54          C62   1.367       .  A
C54         C427   1.390       .  A
C55         N432   1.349       .  A
C55          H68   1.081       .  S
N56          C57   1.357   1_556  A
N56         C431   1.353       .  A
N56         C358   1.443       .  S
C57          H58   1.080       .  S
C59         C805   1.380       .  A
C59         N436   1.354       .  A
C59          H69   1.080       .  S
N60          C61   1.360       .  A
N60         C435   1.365   1_554  A
N60         C342   1.451       .  S
C61         C802   1.380       .  A
C61          H67   1.079       .  S
C62         N439   1.357       .  A
C62          H64   1.080       .  S
N63          C65   1.357       .  A
N63         C438   1.365   1_554  A
N63         C361   1.447       .  S
C65          H66   1.077       .  S
C70          C72   1.546   1_565  S
C70          C73   1.538       .  S
C70         C826   1.535       .  S
C70         C333   1.529       .  S
C71          C75   1.536   1_565  S
C71          C76   1.538       .  S
C71         C829   1.534       .  S
C71         C337   1.521       .  S
C72          C80   1.380       .  A
C72          C75   1.406       .  A
C73          C76   1.393       .  A
C73         C836   1.379       .  A
C74         C822   1.559       .  S
C74          C88   1.395       .  A
C74          C77   1.402       .  A
C75          C78   1.382       .  A
C76         C834   1.376   1_565  A
C77         C823   1.532       .  S
C77          C85   1.366       .  A
C78          N79   1.355       .  A
C78          H91   1.082       .  S
N79          C80   1.349       .  A
N79         C345   1.437       .  S
C80          H81   1.079       .  S
C82         C828   1.369       .  A
C82          N83   1.352       .  A
C82          H92   1.079       .  S
N83          C84   1.358       .  A
N83         C329   1.430       .  S
C84         C825   1.374       .  A
C84          H90   1.082       .  S
C85          N86   1.350       .  A
C85          H87   1.078       .  S
N86          C88   1.367       .  A
N86         C349   1.443       .  S
C88          H89   1.080       .  S
O93         V477   1.887       .  S
O93         C479   1.260       .  A
O94         V101   1.892       .  S
O94         C104   1.264       .  A
O95         V101   1.909       .  S
O95         C105   1.262       .  A
O96         V477   1.889       .  S
O96         C106   1.266       .  A
O97         V478   1.901       .  S
O97         C106   1.259       .  A
O98         V102   1.878       .  S
O98         C105   1.264       .  A
O99         V478   1.921       .  S
O99         C480   1.270       .  A
O100        V102   1.908       .  S
O100        C103   1.267       .  A
V101        O469   1.899   1_554  S
V101        O472   1.890   1_554  S
V101        V102   2.089       .  T
V102        O473   1.898       .  S
V102        O475   1.909       .  S
C103        O469   1.263   1_554  A
C103        C305   1.478       .  S
C104        O475   1.266       .  A
C104        C373   1.479       .  S
C105        C320   1.464       .  S
C106        C313   1.462       .  S
O107        V115   1.894       .  S
O107        C117   1.264       .  A
O108        V115   1.900       .  S
O108        C118   1.264       .  A
O109        V115   1.889       .  S
O109        C119   1.265       .  A
O110        V115   1.909       .  S
O110        C120   1.261       .  A
O111        V116   1.878       .  S
O111        C120   1.264       .  A
O112        V116   1.902       .  S
O112        C119   1.260       .  A
O113        V116   1.907       .  S
O113        C118   1.266       .  A
O114        V116   1.907       .  S
O114        C117   1.265       .  A
V115        V116   2.088       .  T
C117        C301   1.477       .  S
C118        C354   1.478       .  S
C119        C323   1.461       .  S
C120        C310   1.466       .  S
O121        V505   1.894       .  S
O121       C1259   1.264       .  A
O122        V129   1.902   1_655  S
O122        C884   1.267   1_544  A
O123        V129   1.880   1_565  S
O123        C885   1.263       .  A
O124        V505   1.907   1_655  S
O124        C886   1.261       .  A
O125        V506   1.910       .  S
O125        C134   1.263       .  A
O126        V130   1.880       .  S
O126        C133   1.263       .  A
O127        V506   1.885   1_655  S
O127        C508   1.259       .  A
O128        V130   1.926       .  S
O128        C131   1.271   1_554  A
V129        O497   1.906       .  S
V129        O500   1.897   1_554  S
V129        V882   2.089   1_544  T
V130        O501   1.902   1_554  S
V130        O503   1.926   1_455  S
V130        V881   2.088   1_554  T
C131       O1249   1.264       .  A
C131       C1030   1.490       .  S
C132        O874   1.262       .  A
C132        O503   1.271   1_556  A
C132        C341   1.487       .  S
C133        O875   1.263   1_554  A
C133        C292   1.462   1_455  S
C134        O876   1.263       .  A
C134        C282   1.462       .  S
O135        V143   1.901       .  S
O135        C897   1.266       .  A
O136        V143   1.906   1_455  S
O136        C898   1.265       .  A
O137        V143   1.885   1_565  S
O137        C899   1.264   1_655  A
O138        V143   1.905       .  S
O138        C900   1.260       .  A
O139        V144   1.901       .  S
O139        C148   1.261       .  A
O140        V144   1.885       .  S
O140        C147   1.264       .  A
O141        V144   1.901       .  S
O141        C146   1.263       .  A
O142        V144   1.890   1_655  S
O142        C145   1.264       .  A
V143        V896   2.089   1_655  T
V144        V895   2.090       .  T
C145        O887   1.261       .  A
C145        C330   1.464       .  S
C146        O888   1.263       .  A
C146       C1025   1.469       .  S
C147        O889   1.262       .  A
C147        C295   1.462   1_455  S
C148        O890   1.265       .  A
C148        C285   1.462       .  S
C149        C151   1.534       .  S
C149        C153   1.543       .  S
C149        C152   1.540       .  S
C149        C265   1.525       .  S
C150        C154   1.540       .  S
C150        C156   1.537       .  S
C150        C155   1.536       .  S
C150        C269   1.534       .  S
C151        C159   1.375       .  A
C151        C530   1.391       .  A
C152        C163   1.378       .  A
C152        C531   1.392       .  A
C153        C167   1.376       .  A
C153        C532   1.398       .  A
C154        C157   1.377       .  A
C154        C527   1.393   1_554  A
C155        C161   1.374       .  A
C155        C528   1.398   1_554  A
C156        C164   1.378       .  A
C156        C529   1.402   1_554  A
C157        N534   1.363   1_554  A
C157        H170   1.080       .  S
N158        C159   1.357       .  A
N158        C533   1.361       .  A
N158        C258   1.443       .  S
C159        H160   1.075       .  S
C161        N538   1.357       .  A
C161        H171   1.078       .  S
N162        C163   1.363       .  A
N162        C537   1.357       .  A
N162        C682   1.446       .  S
C163        H169   1.081       .  S
C164        N541   1.360   1_554  A
C164        H166   1.081       .  S
N165        C167   1.362       .  A
N165        C540   1.362       .  A
N165        C261   1.443       .  S
C167        H168   1.083       .  S
C172        C174   1.563       .  S
C172        C176   1.544       .  S
C172        C175   1.533       .  S
C172        C270   1.543       .  S
C173        C177   1.535       .  S
C173        C179   1.532       .  S
C173        C178   1.550       .  S
C173        C266   1.538       .  S
C174        C182   1.398       .  A
C174        C177   1.403       .  A
C175        C186   1.371       .  A
C175        C178   1.399       .  A
C176        C190   1.382       .  A
C176        C179   1.394       .  A
C177        C180   1.370       .  A
C178        C184   1.390       .  A
C179        C187   1.376       .  A
C180        N181   1.351       .  A
C180        H193   1.074       .  S
N181        C182   1.366       .  A
N181        C249   1.449       .  S
C182        H183   1.075       .  S
C184        N185   1.359       .  A
C184        H194   1.079       .  S
N185        C186   1.350       .  A
N185        C302   1.437       .  S
C186        H192   1.078       .  S
C187        N188   1.362       .  A
C187        H189   1.081       .  S
N188        C190   1.362       .  A
N188        C254   1.447       .  S
C190        H191   1.082       .  S
C195        C197   1.533       .  S
C195        C198   1.542       .  S
C195        C951   1.527       .  S
C195        C246   1.519       .  S
C196        C200   1.534       .  S
C196        C201   1.542       .  S
C196        C954   1.534       .  S
C196        C241   1.526       .  S
C197        C205   1.375       .  A
C197        C576   1.391   1_554  A
C198        C209   1.381       .  A
C198        C577   1.400   1_554  A
C199        C947   1.530       .  S
C199        C213   1.368       .  A
C199        C578   1.392   1_554  A
C200        C203   1.372       .  A
C200        C573   1.393       .  A
C201        C207   1.382       .  A
C201        C574   1.396       .  A
C202        C948   1.539       .  S
C202        C210   1.378       .  A
C202        C575   1.405       .  A
C203        N204   1.359       .  A
C203        H216   1.079       .  S
N204        C581   1.363       .  A
N204        C262   1.448       .  S
C205        N580   1.355       .  A
C205        H206   1.082       .  S
C207        N960   1.361       .  A
C207        H969   1.079       .  S
N208        C959   1.361       .  A
N208       C1337   1.355       .  A
N208        C653   1.438       .  S
C209       N1336   1.361       .  A
C209        H967   1.082       .  S
C210        N211   1.360       .  A
C210        H212   1.082       .  S
N211        C589   1.355       .  A
N211        C257   1.441       .  S
C213        N587   1.352       .  A
C213        H214   1.080       .  S
H215        C961   1.080       .  S
H217        C959   1.080       .  S
C218        C220   1.558       .  S
C218        C221   1.526       .  S
C218        C974   1.532       .  S
C218        C242   1.535       .  S
C219        C223   1.552       .  S
C219        C224   1.530       .  S
C219        C977   1.540       .  S
C219        C245   1.530       .  S
C220        C228   1.387       .  A
C220        C223   1.410       .  A
C221        C232   1.368       .  A
C221        C224   1.389       .  A
C222        C970   1.547       .  S
C222        C236   1.384       .  A
C222        C225   1.398       .  A
C223        C226   1.386       .  A
C224        C230   1.378       .  A
C225        C971   1.535       .  S
C225        C233   1.375       .  A
C226        N227   1.355       .  A
C226        H239   1.077       .  S
N227        C228   1.355       .  A
N227        C253   1.445       .  S
C228        H229   1.078       .  S
C230        N983   1.359       .  A
C230        H992   1.081       .  S
N231        C982   1.357       .  A
N231        C984   1.356       .  A
N231        C274   1.439       .  S
C232        N983   1.351       .  A
C232        H990   1.079       .  S
C233        N234   1.358       .  A
C233        H235   1.080       .  S
N234        C236   1.367       .  A
N234        C250   1.449       .  S
C236        H237   1.081       .  S
H238        C984   1.079       .  S
H240        C982   1.082       .  S
C241        C242   1.342       .  D
C241        H243   1.072       .  S
C242        H996   1.087       .  S
H244        C994   1.086       .  S
C245        C246   1.342       .  D
C245        H999   1.086       .  S
C246        H248   1.077       .  S
H247        C997   1.078       .  S
C249        C250   1.347       .  D
C249        H251   1.085       .  S
C250        H252   1.084       .  S
C253        C254   1.352       .  D
C253        H255   1.084       .  S
C254        H256   1.085       .  S
C257        C258   1.345       .  D
C257        H635   1.084       .  S
C258        H260   1.085       .  S
H259        C633   1.083       .  S
C261        C262   1.354       .  D
C261        H263   1.082       .  S
C262        H640   1.084       .  S
H264        C638   1.085       .  S
C265        C266   1.350       .  D
C265        H267   1.074       .  S
C266        H268   1.086       .  S
C269        C270   1.349       .  D
C269        H271   1.070       .  S
C270        H272   1.087       .  S
C273        C898   1.476       .  S
C273        C274   1.346       .  D
C273       H1027   1.085       .  S
C274        H276   1.087       .  S
H275       C1025   1.086       .  S
C277        N584   1.439   1_565  S
C277        C278   1.345   1_566  D
C277       H1031   1.087       .  S
C278        C883   1.477       .  S
C278        H656   1.086       .  S
H279       C1029   1.087       .  S
H280        C654   1.085       .  S
C281        C286   1.400       .  A
C281       C1034   1.404       .  A
C281        H287   1.084       .  S
C282        C283   1.404       .  A
C282       C1033   1.404       .  A
C283        C284   1.399       .  A
C283        H288   1.084       .  S
C284        C285   1.402       .  A
C284        H289   1.083       .  S
C285       C1038   1.403       .  A
C286       C1037   1.403       .  A
C286        H290   1.084       .  S
C291        C292   1.403       .  A
C291        C296   1.398       .  A
C291        H297   1.084       .  S
C292       C1045   1.403   1_655  A
C293        C294   1.399       .  A
C293       C1044   1.404       .  A
C293        H298   1.084       .  S
C294       C1047   1.402       .  A
C294        H299   1.084       .  S
C295        C296   1.403       .  A
C295       C1046   1.402   1_655  A
C296        H300   1.084       .  S
C301        C302   1.345       .  D
C301        H303   1.086       .  S
C302        H304   1.087       .  S
C305        C306   1.344       .  D
C305        H307   1.085   1_554  S
C306        N538   1.442       .  S
C306        H684   1.087       .  S
H308        C682   1.087       .  S
C309        C310   1.403       .  A
C309        C314   1.400       .  A
C309        H315   1.083       .  S
C310        C311   1.405       .  A
C311        C312   1.401       .  A
C311        H316   1.083       .  S
C312        C313   1.404       .  A
C312        H317   1.084       .  S
C313        C314   1.404       .  A
C314        H318   1.083       .  S
C319        C320   1.404       .  A
C319        C324   1.400       .  A
C319        H325   1.084       .  S
C320        C321   1.403       .  A
C321        C322   1.399       .  A
C321        H326   1.084       .  S
C322        C323   1.403       .  A
C322        H327   1.084       .  S
C323        C324   1.403       .  A
C324        H328   1.084       .  S
C329        C330   1.339       .  D
C329        H331   1.087       .  S
C330       H1084   1.085       .  S
H332       C1082   1.084   1_565  S
C333        C334   1.352       .  D
C333        H335   1.085       .  S
C334       H1088   1.081       .  S
H336       C1086   1.079       .  S
C337        C338   1.348       .  D
C337        H339   1.081   1_565  S
C338       H1092   1.087       .  S
H340       C1090   1.074       .  S
C341        C342   1.348   1_556  D
C341       H1471   1.085       .  S
C342        H344   1.087       .  S
H343       C1469   1.085       .  S
C345        C346   1.343       .  D
C345        H347   1.084       .  S
C346        H348   1.085       .  S
C349        C350   1.344       .  D
C349        H351   1.083       .  S
C350        H352   1.085       .  S
C353        C354   1.347       .  D
C353        H355   1.087       .  S
C354        H356   1.084       .  S
C357        C358   1.349   1_554  D
C357        H359   1.084       .  S
C358        H736   1.083       .  S
H360        C734   1.084       .  S
C361        C362   1.346   1_554  D
C361        H363   1.085       .  S
C362        H740   1.084       .  S
H364        C738   1.083       .  S
C365        C366   1.346       .  D
C365        H367   1.076       .  S
C366        H368   1.087       .  S
C369        C370   1.353       .  D
C369        H371   1.086       .  S
C370        H372   1.077       .  S
C373        C374   1.345       .  D
C373        H375   1.085       .  S
C374        N390   1.438       .  S
C374        H752   1.087   1_554  S
H376        C750   1.086       .  S
C377        C379   1.535       .  S
C377        C381   1.522       .  S
C377        C380   1.529   1_556  S
C377        C742   1.523       .  S
C378        C382   1.528       .  S
C378        C384   1.538       .  S
C378        C383   1.541       .  S
C378        C745   1.525       .  S
C379        C387   1.373       .  A
C380        C391   1.370   1_554  A
C381        C395   1.371       .  A
C382        C385   1.377       .  A
C383        C389   1.383       .  A
C384        C392   1.375       .  A
C385        N386   1.353       .  A
C385        H398   1.081       .  S
N386        C738   1.433       .  S
C387        H388   1.081       .  S
C389        H399   1.080       .  S
N390        C391   1.351   1_554  A
C391        H397   1.082       .  S
C392        N393   1.356       .  A
C392        H394   1.078       .  S
N393        C733   1.449       .  S
C395        H396   1.081       .  S
C400        C402   1.553       .  S
C400        C404   1.524       .  S
C400        C403   1.527       .  S
C400        C746   1.527       .  S
C401        C405   1.535       .  S
C401        C407   1.535       .  S
C401        C406   1.550       .  S
C401        C741   1.526       .  S
C402        C410   1.388       .  A
C402        C405   1.403       .  A
C403        C414   1.372       .  A
C403        C406   1.395       .  A
C404        C418   1.364       .  A
C404        C407   1.391       .  A
C405        C408   1.372       .  A
C406        C412   1.383       .  A
C407        C415   1.383       .  A
C408        N409   1.350       .  A
C408        H421   1.081       .  S
N409        C410   1.365       .  A
N409        C726   1.441       .  S
C410        H411   1.080       .  S
C412        N413   1.357       .  A
C412        H422   1.080       .  S
N413        C414   1.357       .  A
N413        C729   1.439       .  S
C414        H420   1.079       .  S
C415        N416   1.365       .  A
C415        H417   1.082       .  S
N416        C418   1.350       .  A
N416        C722   1.435       .  S
C418        H419   1.078       .  S
C423        C425   1.559   1_565  S
C423       C1179   1.534       .  S
C423        C426   1.529       .  S
C423        C714   1.529       .  S
C424        C428   1.552   1_565  S
C424       C1182   1.529       .  S
C424        C429   1.561       .  S
C424        C710   1.537       .  S
C425        C433   1.397       .  A
C426       C1189   1.372       .  A
C427       C1175   1.535       .  S
C427        C441   1.376       .  A
C428        C431   1.378       .  A
C429       C1187   1.393       .  A
C430       C1176   1.542       .  S
C430        C438   1.383       .  A
C431        H444   1.075       .  S
N432        C433   1.363       .  A
N432        C734   1.446       .  S
C433        H434   1.080       .  S
C435       C1181   1.384       .  A
C435        H445   1.081       .  S
N436        C437   1.359       .  A
N436        C718   1.439       .  S
C437       C1178   1.376       .  A
C437        H443   1.082       .  S
C438        H440   1.081       .  S
N439        C441   1.357       .  A
N439        C737   1.436       .  S
C441        H442   1.077       .  S
C446        C448   1.536   1_565  S
C446       C1202   1.556       .  S
C446        C449   1.542       .  S
C446        C709   1.537       .  S
C447        C451   1.531   1_565  S
C447       C1205   1.540       .  S
C447        C452   1.543       .  S
C447        C713   1.528       .  S
C448        C456   1.373       .  A
C448        C451   1.389       .  A
C449       C1212   1.380       .  A
C449        C452   1.396       .  A
C450       C1198   1.554       .  S
C450        C464   1.390       .  A
C450        C453   1.402       .  A
C451        C454   1.376       .  A
C452       C1210   1.381       .  A
C453       C1199   1.530       .  S
C453        C461   1.370       .  A
C454        N455   1.361       .  A
C454        H467   1.081       .  S
N455        C456   1.353       .  A
N455        C721   1.441       .  S
C456        H457   1.074       .  S
C458       C1204   1.369       .  A
C458        N459   1.355       .  A
C458        H468   1.083       .  S
N459        C460   1.362       .  A
N459        C705   1.434       .  S
C460       C1201   1.378       .  A
C460        H466   1.082       .  S
C461        N462   1.348       .  A
C461        H463   1.079       .  S
N462        C464   1.364       .  A
N462        C725   1.440       .  S
C464        H465   1.080       .  S
O470        V477   1.883       .  S
O470        C480   1.260       .  A
O471        V477   1.909       .  S
O471        C481   1.262       .  A
O472        C482   1.266       .  A
O473        C482   1.259   1_554  A
O474        V478   1.879       .  S
O474        C481   1.264       .  A
O476        V478   1.919       .  S
O476        C479   1.270       .  A
V477        V478   2.086       .  T
C479        C681   1.476       .  S
C480        C749   1.473       .  S
C481        C696   1.463       .  S
C482        C689   1.457       .  S
O483        V491   1.889       .  S
O483        C493   1.265       .  A
O484        V491   1.898       .  S
O484        C494   1.263       .  A
O485        V491   1.888       .  S
O485        C495   1.264       .  A
O486        V491   1.903       .  S
O486        C496   1.260       .  A
O487        V492   1.881       .  S
O487        C496   1.265       .  A
O488        V492   1.906       .  S
O488        C495   1.261       .  A
O489        V492   1.897       .  S
O489        C494   1.265       .  A
O490        V492   1.905       .  S
O490        C493   1.264       .  A
V491        V492   2.088       .  T
C493        C677   1.475       .  S
C494        C730   1.470       .  S
C495        C699   1.462       .  S
C496        C686   1.459       .  S
O497        C883   1.265       .  A
O498        V505   1.895   1_655  S
O498       C1260   1.262       .  A
O499        V505   1.887   1_565  S
O499       C1261   1.265       .  A
O500       C1262   1.258       .  A
O501        C510   1.260       .  A
O502        V506   1.886       .  S
O502        C509   1.265       .  A
O504        V506   1.885       .  S
O504        C507   1.260       .  A
V505       V1258   2.089   1_455  T
V506       V1257   2.088       .  T
C507        O873   1.269       .  A
C507       C1406   1.474       .  S
C508       O1250   1.269       .  A
C508        C717   1.470       .  S
C509       O1251   1.258       .  A
C509        C668   1.462       .  S
C510       O1252   1.266       .  A
C510        C658   1.463       .  S
O511        V519   1.913   1_655  S
O511       C1273   1.267   1_545  A
O512        V519   1.913       .  S
O512       C1274   1.267       .  A
O513        V519   1.879   1_565  S
O513       C1275   1.264       .  A
O514        V519   1.901       .  S
O514       C1276   1.259       .  A
O515        V520   1.908       .  S
O515        C524   1.262       .  A
O516        V520   1.885       .  S
O516        C523   1.265       .  A
O517        V520   1.902       .  S
O517        C522   1.262       .  A
O518        V520   1.890   1_655  S
O518        C521   1.264       .  A
V519       V1272   2.089   1_545  T
V520       V1271   2.087       .  T
C521       O1263   1.263       .  A
C521        C706   1.472       .  S
C522       O1264   1.265       .  A
C522       C1401   1.473       .  S
C523       O1265   1.258       .  A
C523        C671   1.462       .  S
C524       O1266   1.264       .  A
C524        C661   1.468       .  S
C525        C527   1.531       .  S
C525        C529   1.554       .  S
C525        C528   1.540       .  S
C525        C641   1.535       .  S
C526        C530   1.535       .  S
C526        C532   1.535       .  S
C526        C531   1.540       .  S
C526        C645   1.516       .  S
C527        C535   1.376       .  A
C528        C539   1.379       .  A
C529        C543   1.383       .  A
C530        C533   1.377       .  A
C531        C537   1.380       .  A
C532        C540   1.377       .  A
C533        H546   1.080       .  S
N534        C535   1.355       .  A
N534        C634   1.442       .  S
C535        H536   1.082       .  S
C537        H547   1.078       .  S
N538        C539   1.363   1_554  A
C539        H545   1.082       .  S
C540        H542   1.080       .  S
N541        C543   1.354       .  A
N541        C637   1.442       .  S
C543        H544   1.078       .  S
C548        C550   1.544       .  S
C548        C552   1.519       .  S
C548        C551   1.527       .  S
C548        C646   1.522       .  S
C549        C553   1.552       .  S
C549        C555   1.542       .  S
C549        C554   1.539       .  S
C549        C642   1.523       .  S
C550        C558   1.379       .  A
C550        C553   1.408       .  A
C551        C562   1.365       .  A
C551        C554   1.395       .  A
C552        C566   1.370       .  A
C552        C555   1.386       .  A
C553        C556   1.386       .  A
C554        C560   1.383       .  A
C555        C563   1.382       .  A
C556        N557   1.363       .  A
C556        H569   1.079       .  S
N557        C558   1.352       .  A
N557        C625   1.445       .  S
C558        H559   1.081       .  S
C560        N561   1.362       .  A
C560        H570   1.082       .  S
N561        C562   1.351       .  A
N561        C678   1.431       .  S
C562        H568   1.080       .  S
C563        N564   1.362       .  A
C563        H565   1.080       .  S
N564        C566   1.353       .  A
N564        C630   1.437       .  S
C566        H567   1.082       .  S
C571        C573   1.547       .  S
C571       C1327   1.538       .  S
C571        C574   1.538       .  S
C571        C622   1.530       .  S
C572        C576   1.541       .  S
C572       C1330   1.548       .  S
C572        C577   1.549       .  S
C572        C617   1.533       .  S
C573        C581   1.386       .  A
C574        C585   1.373       .  A
C575       C1323   1.549       .  S
C575        C589   1.381       .  A
C576        C579   1.382       .  A
C577        C583   1.383       .  A
C578       C1324   1.537       .  S
C578        C586   1.383       .  A
C579        N580   1.365   1_556  A
C579        H592   1.081       .  S
N580        C638   1.443       .  S
C581        H582   1.082       .  S
C583       N1336   1.366   1_556  A
C583       H1345   1.081       .  S
N584       C1335   1.351       .  A
N584        C961   1.359   1_556  A
C585        N960   1.362       .  A
C585       H1343   1.081       .  S
C586        N587   1.364   1_556  A
C586        H588   1.079       .  S
N587        C633   1.439       .  S
C589        H590   1.080       .  S
H591       C1337   1.080       .  S
H593       C1335   1.081       .  S
C594        C596   1.536       .  S
C594       C1350   1.537       .  S
C594        C597   1.519       .  S
C594        C618   1.525       .  S
C595        C599   1.542       .  S
C595       C1353   1.536       .  S
C595        C600   1.548       .  S
C595        C621   1.530       .  S
C596        C604   1.380       .  A
C596        C599   1.408       .  A
C597        C608   1.358       .  A
C597        C600   1.397       .  A
C598       C1346   1.529       .  S
C598        C612   1.377       .  A
C598        C601   1.388       .  A
C599        C602   1.376       .  A
C600        C606   1.387       .  A
C601       C1347   1.545       .  S
C601        C609   1.383       .  A
C602        N603   1.356       .  A
C602        H615   1.081       .  S
N603        C604   1.353       .  A
N603        C629   1.439       .  S
C604        H605   1.081       .  S
C606       N1359   1.364       .  A
C606       H1368   1.081       .  S
N607       C1358   1.364       .  A
N607       C1360   1.355       .  A
N607        C650   1.445       .  S
C608       N1359   1.349       .  A
C608       H1366   1.083       .  S
C609        N610   1.365       .  A
C609        H611   1.080       .  S
N610        C612   1.356       .  A
N610        C626   1.447       .  S
C612        H613   1.081       .  S
H614       C1360   1.081       .  S
H616       C1358   1.077       .  S
C617        C618   1.353       .  D
C617        H619   1.085       .  S
C618       H1372   1.078       .  S
H620       C1370   1.086       .  S
C621        C622   1.347       .  D
C621       H1375   1.086       .  S
C622        H624   1.083       .  S
H623       C1373   1.076       .  S
C625        C626   1.346       .  D
C625        H627   1.084       .  S
C626        H628   1.085       .  S
C629        C630   1.344       .  D
C629        H631   1.085       .  S
C630        H632   1.084       .  S
C633        C634   1.343   1_554  D
C634        H636   1.085       .  S
C637        C638   1.344   1_556  D
C637        H639   1.084       .  S
C641        C642   1.343       .  D
C641        H643   1.085       .  S
C642        H644   1.073       .  S
C645        C646   1.343       .  D
C645        H647   1.079       .  S
C646        H648   1.086       .  S
C649       C1274   1.486       .  S
C649        C650   1.348       .  D
C649       H1403   1.085       .  S
C650        H652   1.087       .  S
H651       C1401   1.085       .  S
C653        C654   1.345       .  D
C653       H1407   1.087       .  S
C654       C1259   1.475       .  S
H655       C1405   1.087       .  S
C657       C1410   1.402   1_655  A
C657        C662   1.397       .  A
C657        H663   1.084       .  S
C658       C1409   1.405   1_455  A
C658        C659   1.405       .  A
C659        C660   1.402       .  A
C659        H664   1.083       .  S
C660        C661   1.405       .  A
C660        H665   1.083       .  S
C661       C1414   1.404       .  A
C662       C1413   1.401   1_655  A
C662        H666   1.084       .  S
C667        C668   1.403   1_655  A
C667        C672   1.398       .  A
C667        H673   1.084       .  S
C668       C1421   1.403       .  A
C669       C1420   1.403       .  A
C669        C670   1.399       .  A
C669        H674   1.084       .  S
C670       C1423   1.403       .  A
C670        H675   1.084       .  S
C671       C1422   1.403       .  A
C671        C672   1.403   1_455  A
C672        H676   1.084       .  S
C677        C678   1.340       .  D
C677        H679   1.086       .  S
C678        H680   1.087       .  S
C681        C682   1.343       .  D
C681        H683   1.084       .  S
C685        C686   1.402       .  A
C685        C690   1.396       .  A
C685        H691   1.084       .  S
C686        C687   1.402       .  A
C687        C688   1.398       .  A
C687        H692   1.084       .  S
C688        C689   1.402       .  A
C688        H693   1.084       .  S
C689        C690   1.402       .  A
C690        H694   1.084       .  S
C695        C696   1.404       .  A
C695        C700   1.400       .  A
C695        H701   1.084       .  S
C696        C697   1.403       .  A
C697        C698   1.398       .  A
C697        H702   1.084       .  S
C698        C699   1.404       .  A
C698        H703   1.084       .  S
C699        C700   1.402       .  A
C700        H704   1.084       .  S
C705        C706   1.342       .  D
C705        H707   1.087       .  S
C706       H1460   1.085       .  S
H708       C1458   1.084       .  S
C709        C710   1.355       .  D
C709        H711   1.079       .  S
C710       H1464   1.087       .  S
H712       C1462   1.078       .  S
C713        C714   1.344       .  D
C713        H715   1.080   1_565  S
C714       H1468   1.087       .  S
H716       C1466   1.074       .  S
C717        C718   1.339       .  D
C717       H1095   1.086       .  S
C718        H720   1.087       .  S
H719       C1093   1.086       .  S
C721        C722   1.339       .  D
C721        H723   1.085       .  S
C722        H724   1.084       .  S
C725        C726   1.339       .  D
C725        H727   1.085       .  S
C726        H728   1.085       .  S
C729        C730   1.345       .  D
C729        H731   1.087       .  S
C730        H732   1.084       .  S
C733        C734   1.346       .  D
C733        H735   1.085       .  S
C737        C738   1.344       .  D
C737        H739   1.084       .  S
C741        C742   1.345       .  D
C741        H743   1.085       .  S
C742        H744   1.080       .  S
C745        C746   1.341       .  D
C745        H747   1.080       .  S
C746        H748   1.086       .  S
C749        C750   1.343       .  D
C749        H751   1.085       .  S
C753        C755   1.542       .  S
C753        C757   1.531       .  S
C753        C756   1.550       .  S
C753       C1118   1.527       .  S
C754        C758   1.535       .  S
C754        C760   1.539       .  S
C754        C759   1.538       .  S
C754       C1121   1.528       .  S
C755        C763   1.381       .  A
C755       C1134   1.391       .  A
C756        C767   1.384       .  A
C756       C1135   1.400       .  A
C757        C771   1.375       .  A
C757       C1136   1.393       .  A
C758       C1131   1.396   1_554  A
C758        C761   1.374       .  A
C759       C1132   1.391   1_554  A
C759        C765   1.380       .  A
C760       C1133   1.400   1_554  A
C760        C768   1.369       .  A
C761        N762   1.359   1_554  A
C761        H774   1.082       .  S
N762       C1139   1.349       .  A
N762       C1114   1.432       .  S
C763       N1138   1.359       .  A
C763        H764   1.078       .  S
C765       N1142   1.359       .  A
C765        H775   1.081       .  S
N766       C1141   1.360       .  A
N766        C767   1.366       .  A
N766       C1502   1.449       .  S
C767        H773   1.081       .  S
C768        N769   1.357       .  A
C768        H770   1.080       .  S
N769       C1147   1.365   1_554  A
N769       C1109   1.443       .  S
C771       N1145   1.361       .  A
C771        H772   1.081       .  S
C776        C778   1.553       .  S
C776        C780   1.530       .  S
C776        C779   1.530       .  S
C776       C1122   1.530       .  S
C777        C781   1.539       .  S
C777        C783   1.537       .  S
C777        C782   1.542       .  S
C777       C1117   1.537       .  S
C778        C786   1.391       .  A
C778        C781   1.407       .  A
C779        C790   1.376       .  A
C779        C782   1.396       .  A
C780        C794   1.370       .  A
C780        C783   1.393       .  A
C781        C784   1.371       .  A
C782        C788   1.376       .  A
C783        C791   1.381       .  A
C784        N785   1.351       .  A
C784        H797   1.080       .  S
N785        C786   1.363       .  A
N785       C1102   1.443       .  S
C786        H787   1.080       .  S
C788        N789   1.351       .  A
C788        H798   1.079       .  S
N789        C790   1.358       .  A
N789       C1105   1.432       .  S
C790        H796   1.081       .  S
C791        N792   1.367       .  A
C791        H793   1.081       .  S
N792        C794   1.352       .  A
N792       C1098   1.440       .  S
C794        H795   1.080       .  S
C799        C801   1.532       .  S
C799        C802   1.542       .  S
C799       C1090   1.527       .  S
C800        C804   1.540       .  S
C800        C805   1.543       .  S
C800       C1086   1.528       .  S
C801        C809   1.373       .  A
C801       C1180   1.391   1_554  A
C802       C1181   1.397   1_554  A
C803        C817   1.364       .  A
C803       C1182   1.388   1_554  A
C804       C1177   1.397       .  A
C804        C807   1.377       .  A
C805       C1178   1.404       .  A
C806       C1179   1.387       .  A
C806        C814   1.377       .  A
C807       N1184   1.358       .  A
C807        H820   1.077       .  S
N808       C1183   1.362       .  A
N808        C809   1.361   1_556  A
N808       C1110   1.450       .  S
C809        H810   1.080       .  S
C811       N1188   1.356       .  A
C811        H821   1.077       .  S
N812       C1187   1.366       .  A
N812        C813   1.350   1_556  A
N812       C1094   1.439   1_566  S
C813        H819   1.082       .  S
C814       N1191   1.360       .  A
C814        H816   1.081       .  S
N815       C1190   1.361   1_554  A
N815        C817   1.349       .  A
N815       C1113   1.428       .  S
C817        H818   1.078       .  S
C822        C824   1.526       .  S
C822        C825   1.525       .  S
C822       C1085   1.525       .  S
C823        C827   1.555       .  S
C823        C828   1.527       .  S
C823       C1089   1.530       .  S
C824        C832   1.363       .  A
C824        C827   1.398       .  A
C825        C828   1.389       .  A
C826        C840   1.377       .  A
C826        C829   1.391       .  A
C827        C830   1.394       .  A
C829        C837   1.376       .  A
C830        N831   1.366       .  A
C830        H843   1.078       .  S
N831        C832   1.346       .  A
N831       C1097   1.439       .  S
C832        H833   1.076       .  S
C834        N835   1.357       .  A
C834        H844   1.082       .  S
N835        C836   1.362   1_545  A
N835       C1081   1.442       .  S
C836        H842   1.078       .  S
C837        N838   1.358       .  A
C837        H839   1.078       .  S
N838        C840   1.365       .  A
N838       C1101   1.446       .  S
C840        H841   1.081       .  S
O845       V1229   1.898       .  S
O845       C1231   1.265       .  A
O846        V853   1.896       .  S
O846        C856   1.263       .  A
O847        V853   1.902       .  S
O847        C857   1.259   1_556  A
O848       V1229   1.888       .  S
O848        C858   1.265       .  A
O849       V1230   1.904       .  S
O849        C858   1.261       .  A
O850        V854   1.884       .  S
O850        C857   1.266       .  A
O851       V1230   1.912       .  S
O851       C1232   1.268       .  A
O852        V854   1.905       .  S
O852        C855   1.264       .  A
V853       O1221   1.890       .  S
V853       O1224   1.881       .  S
V853        V854   2.090   1_556  T
V854       O1225   1.906       .  S
V854       O1227   1.902       .  S
C855       O1221   1.264   1_554  A
C855       C1057   1.473       .  S
C856       O1227   1.265   1_556  A
C856       C1125   1.472       .  S
C857       C1072   1.461       .  S
C858       C1065   1.462       .  S
O859        V867   1.885       .  S
O859        C869   1.262       .  A
O860        V867   1.893       .  S
O860        C870   1.260       .  A
O861        V867   1.889       .  S
O861        C871   1.266       .  A
O862        V867   1.909       .  S
O862        C872   1.263       .  A
O863        V868   1.880       .  S
O863        C872   1.263       .  A
O864        V868   1.899       .  S
O864        C871   1.259       .  A
O865        V868   1.893       .  S
O865        C870   1.266       .  A
O866        V868   1.903       .  S
O866        C869   1.264       .  A
V867        V868   2.090       .  T
C869       C1053   1.469       .  S
C870       C1106   1.467       .  S
C871       C1075   1.459       .  S
C872       C1062   1.464       .  S
O873       V1257   1.919       .  S
O874        V881   1.897   1_655  S
O875        V881   1.910       .  S
O876       V1257   1.874       .  S
O877       V1258   1.882       .  S
O877        C886   1.264       .  A
O878        V882   1.909   1_554  S
O878        C885   1.262       .  A
O879       V1258   1.897       .  S
O879       C1260   1.265       .  A
O880        V882   1.897       .  S
O880        C883   1.264   1_566  A
V881       O1249   1.900       .  S
V881       O1252   1.890       .  S
V882       O1253   1.889   1_565  S
V882       O1255   1.904   1_455  S
C884       O1255   1.263       .  A
C884       C1093   1.481       .  S
C885       C1044   1.462       .  S
C886       C1034   1.464       .  S
O887        V895   1.894   1_655  S
O888        V895   1.885       .  S
O889        V895   1.907       .  S
O890        V895   1.893       .  S
O891        V896   1.886       .  S
O891        C900   1.265   1_455  A
O892        V896   1.905   1_565  S
O892        C899   1.261       .  A
O893        V896   1.894       .  S
O893        C898   1.264       .  A
O894        V896   1.902   1_665  S
O894        C897   1.264   1_565  A
C897       C1082   1.478       .  S
C899       C1047   1.461       .  S
C900       C1037   1.463       .  S
C901        C903   1.533       .  S
C901        C905   1.536       .  S
C901        C904   1.551       .  S
C901       C1017   1.533       .  S
C902        C906   1.531       .  S
C902        C908   1.546       .  S
C902        C907   1.535       .  S
C902       C1021   1.528       .  S
C903        C911   1.372       .  A
C903       C1282   1.395       .  A
C904        C915   1.380       .  A
C904       C1283   1.404       .  A
C905        C919   1.382       .  A
C905       C1284   1.389       .  A
C906       C1279   1.391   1_554  A
C906        C909   1.373       .  A
C907       C1280   1.395   1_554  A
C907        C913   1.377       .  A
C908       C1281   1.403   1_554  A
C908        C916   1.378       .  A
C909       N1286   1.360   1_554  A
C909        H922   1.080       .  S
N910       C1285   1.365       .  A
N910        C911   1.357       .  A
N910       C1010   1.443       .  S
C911        H912   1.083       .  S
C913       N1290   1.362   1_554  A
C913        H923   1.080       .  S
N914       C1289   1.360       .  A
N914        C915   1.355       .  A
N914       C1434   1.442       .  S
C915        H921   1.080       .  S
C916       N1293   1.360   1_554  A
C916        H918   1.078       .  S
N917       C1292   1.362       .  A
N917        C919   1.360       .  A
N917       C1013   1.447       .  S
C919        H920   1.079       .  S
C924        C926   1.547       .  S
C924        C928   1.534       .  S
C924        C927   1.529       .  S
C924       C1022   1.526       .  S
C925        C929   1.542       .  S
C925        C931   1.535       .  S
C925        C930   1.534       .  S
C925       C1018   1.524       .  S
C926        C934   1.379       .  A
C926        C929   1.402       .  A
C927        C938   1.372       .  A
C927        C930   1.392       .  A
C928        C942   1.374       .  A
C928        C931   1.392       .  A
C929        C932   1.378       .  A
C930        C936   1.375       .  A
C931        C939   1.377       .  A
C932        N933   1.364       .  A
C932        H945   1.080       .  S
N933        C934   1.359       .  A
N933       C1001   1.445       .  S
C934        H935   1.081       .  S
C936        N937   1.359       .  A
C936        H946   1.081       .  S
N937        C938   1.356       .  A
N937       C1054   1.434       .  S
C938        H944   1.081       .  S
C939        N940   1.363       .  A
C939        H941   1.077       .  S
N940        C942   1.356       .  A
N940       C1006   1.441       .  S
C942        H943   1.082       .  S
C947        C949   1.533   1_545  S
C947        C950   1.554       .  S
C947        C998   1.528       .  S
C948        C952   1.545   1_545  S
C948        C953   1.542       .  S
C948        C993   1.529       .  S
C949        C957   1.378       .  A
C949       C1328   1.391   1_554  A
C950        C961   1.389       .  A
C950       C1329   1.410   1_554  A
C951        C965   1.374       .  A
C951       C1330   1.394   1_554  A
C952       C1325   1.397       .  A
C952        C955   1.386       .  A
C953       C1326   1.392       .  A
C953        C959   1.381       .  A
C954       C1327   1.395       .  A
C954        C962   1.374       .  A
C955        N956   1.365       .  A
C955        H968   1.080       .  S
N956       C1333   1.354       .  A
N956       C1014   1.440       .  S
C957       N1332   1.359       .  A
C957        H958   1.082       .  S
N960       C1405   1.446       .  S
C962        N963   1.363       .  A
C962        H964   1.080       .  S
N963       C1341   1.360       .  A
N963       C1009   1.445       .  S
C965       N1339   1.355       .  A
C965        H966   1.082       .  S
C970        C972   1.537   1_545  S
C970        C973   1.552       .  S
C970        C994   1.538       .  S
C971        C975   1.538   1_545  S
C971        C976   1.533       .  S
C971        C997   1.526       .  S
C972        C980   1.377       .  A
C972        C975   1.393       .  A
C973        C984   1.383       .  A
C973        C976   1.399       .  A
C974        C988   1.375       .  A
C974        C977   1.394       .  A
C975        C978   1.378       .  A
C976        C982   1.377       .  A
C977        C985   1.381       .  A
C978        N979   1.362       .  A
C978        H991   1.079       .  S
N979        C980   1.357       .  A
N979       C1005   1.443       .  S
C980        H981   1.081       .  S
N983       C1026   1.430       .  S
C985        N986   1.365       .  A
C985        H987   1.080       .  S
N986        C988   1.358       .  A
N986       C1002   1.445       .  S
C988        H989   1.082       .  S
C993        C994   1.348       .  D
C993        H995   1.079       .  S
C997        C998   1.347       .  D
C998       H1000   1.086   1_545  S
C1001      C1002   1.348       .  D
C1001      H1003   1.084       .  S
C1002      H1004   1.084       .  S
C1005      C1006   1.346       .  D
C1005      H1007   1.084       .  S
C1006      H1008   1.084       .  S
C1009      C1010   1.347       .  D
C1009      H1387   1.084       .  S
C1010      H1012   1.084       .  S
H1011      C1385   1.084       .  S
C1013      C1014   1.347       .  D
C1013      H1015   1.085       .  S
C1014      H1392   1.083       .  S
H1016      C1390   1.084       .  S
C1017      C1018   1.347       .  D
C1017      H1019   1.086       .  S
C1018      H1020   1.077       .  S
C1021      C1022   1.344       .  D
C1021      H1023   1.083       .  S
C1022      H1024   1.083       .  S
C1025      C1026   1.341       .  D
C1026      H1028   1.087       .  S
C1029      N1336   1.452       .  S
C1029      C1030   1.349   1_554  D
C1030      H1408   1.085       .  S
H1032      C1406   1.084       .  S
C1033      C1038   1.399       .  A
C1033      H1039   1.084   1_455  S
C1034      C1035   1.403   1_655  A
C1035      C1036   1.399       .  A
C1035      H1040   1.084       .  S
C1036      C1037   1.404   1_455  A
C1036      H1041   1.083       .  S
C1038      H1042   1.084   1_455  S
C1043      C1044   1.403   1_655  A
C1043      C1048   1.397       .  A
C1043      H1049   1.084       .  S
C1045      C1046   1.399       .  A
C1045      H1050   1.084       .  S
C1046      H1051   1.084       .  S
C1047      C1048   1.403   1_455  A
C1048      H1052   1.084       .  S
C1053      C1054   1.345       .  D
C1053      H1055   1.085       .  S
C1054      H1056   1.087       .  S
C1057      C1058   1.344   1_554  D
C1057      H1059   1.085       .  S
C1058      N1290   1.436       .  S
C1058      H1436   1.088       .  S
H1060      C1434   1.087       .  S
C1061      C1062   1.405       .  A
C1061      C1066   1.399       .  A
C1061      H1067   1.083       .  S
C1062      C1063   1.403       .  A
C1063      C1064   1.398       .  A
C1063      H1068   1.084       .  S
C1064      C1065   1.404       .  A
C1064      H1069   1.084       .  S
C1065      C1066   1.402       .  A
C1066      H1070   1.084       .  S
C1071      C1072   1.403       .  A
C1071      C1076   1.398       .  A
C1071      H1077   1.084       .  S
C1072      C1073   1.402       .  A
C1073      C1074   1.398       .  A
C1073      H1078   1.084       .  S
C1074      C1075   1.403       .  A
C1074      H1079   1.084       .  S
C1075      C1076   1.402       .  A
C1076      H1080   1.084       .  S
C1081      C1082   1.346       .  D
C1081      H1083   1.087       .  S
C1085      C1086   1.340       .  D
C1085      H1087   1.086       .  S
C1089      C1090   1.342       .  D
C1089      H1091   1.087       .  S
C1093      C1094   1.342   1_566  D
C1094      H1096   1.087       .  S
C1097      C1098   1.338       .  D
C1097      H1099   1.085       .  S
C1098      H1100   1.085       .  S
C1101      C1102   1.345       .  D
C1101      H1103   1.085       .  S
C1102      H1104   1.083       .  S
C1105      C1106   1.337       .  D
C1105      H1107   1.088       .  S
C1106      H1108   1.085       .  S
C1109      C1110   1.350   1_554  D
C1109      H1111   1.083       .  S
C1110      H1488   1.085       .  S
H1112      C1486   1.084       .  S
C1113      C1114   1.335   1_554  D
C1113      H1115   1.085       .  S
C1114      H1492   1.086       .  S
H1116      C1490   1.084       .  S
C1117      C1118   1.357       .  D
C1117      H1119   1.086       .  S
C1118      H1120   1.080       .  S
C1121      C1122   1.348       .  D
C1121      H1123   1.080       .  S
C1122      H1124   1.086       .  S
C1125      C1126   1.346   1_556  D
C1125      H1127   1.083       .  S
C1126      N1142   1.442       .  S
C1126      H1504   1.087       .  S
H1128      C1502   1.087       .  S
C1129      C1131   1.525       .  S
C1129      C1133   1.544       .  S
C1129      C1132   1.535       .  S
C1129      C1494   1.518       .  S
C1130      C1134   1.526       .  S
C1130      C1136   1.536       .  S
C1130      C1135   1.541       .  S
C1130      C1497   1.528       .  S
C1131      C1139   1.370       .  A
C1132      C1143   1.373       .  A
C1133      C1147   1.386       .  A
C1134      C1137   1.367       .  A
C1135      C1141   1.377       .  A
C1136      C1144   1.373       .  A
C1137      N1138   1.358       .  A
C1137      H1150   1.080       .  S
N1138      C1490   1.441       .  S
C1139      H1140   1.075       .  S
C1141      H1151   1.082       .  S
N1142      C1143   1.360   1_554  A
C1143      H1149   1.080       .  S
C1144      N1145   1.358       .  A
C1144      H1146   1.077       .  S
N1145      C1485   1.440       .  S
C1147      H1148   1.082       .  S
C1152      C1154   1.568       .  S
C1152      C1156   1.539       .  S
C1152      C1155   1.532       .  S
C1152      C1498   1.530       .  S
C1153      C1157   1.540       .  S
C1153      C1159   1.526       .  S
C1153      C1158   1.548       .  S
C1153      C1493   1.529       .  S
C1154      C1162   1.402       .  A
C1154      C1157   1.403       .  A
C1155      C1166   1.375       .  A
C1155      C1158   1.394       .  A
C1156      C1170   1.377       .  A
C1156      C1159   1.388       .  A
C1157      C1160   1.373       .  A
C1158      C1164   1.385       .  A
C1159      C1167   1.375       .  A
C1160      N1161   1.354       .  A
C1160      H1173   1.075       .  S
N1161      C1162   1.369       .  A
N1161      C1478   1.456       .  S
C1162      H1163   1.078       .  S
C1164      N1165   1.356       .  A
C1164      H1174   1.081       .  S
N1165      C1166   1.359       .  A
N1165      C1481   1.441       .  S
C1166      H1172   1.081       .  S
C1167      N1168   1.362       .  A
C1167      H1169   1.081       .  S
N1168      C1170   1.356       .  A
N1168      C1474   1.442       .  S
C1170      H1171   1.077       .  S
C1175      C1177   1.534       .  S
C1175      C1178   1.536       .  S
C1175      C1466   1.523       .  S
C1176      C1180   1.546       .  S
C1176      C1181   1.548       .  S
C1176      C1462   1.526       .  S
C1177      C1185   1.374       .  A
C1179      C1193   1.371       .  A
C1180      C1183   1.385       .  A
C1182      C1190   1.377       .  A
C1183      H1196   1.076       .  S
N1184      C1185   1.359       .  A
N1184      C1486   1.441       .  S
C1185      H1186   1.081       .  S
C1187      H1197   1.080       .  S
N1188      C1189   1.359       .  A
N1188      C1470   1.437   1_565  S
C1189      H1195   1.080       .  S
C1190      H1192   1.082       .  S
N1191      C1193   1.356       .  A
N1191      C1489   1.435       .  S
C1193      H1194   1.080       .  S
C1198      C1200   1.533       .  S
C1198      C1201   1.532       .  S
C1198      C1461   1.532       .  S
C1199      C1203   1.548       .  S
C1199      C1204   1.531       .  S
C1199      C1465   1.529       .  S
C1200      C1208   1.367       .  A
C1200      C1203   1.398       .  A
C1201      C1204   1.394       .  A
C1202      C1216   1.391       .  A
C1202      C1205   1.400       .  A
C1203      C1206   1.389       .  A
C1205      C1213   1.376       .  A
C1206      N1207   1.363       .  A
C1206      H1219   1.077       .  S
N1207      C1208   1.350       .  A
N1207      C1473   1.440       .  S
C1208      H1209   1.076       .  S
C1210      N1211   1.360       .  A
C1210      H1220   1.081       .  S
N1211      C1212   1.363       .  A
N1211      C1457   1.448       .  S
C1212      H1218   1.081       .  S
C1213      N1214   1.359       .  A
C1213      H1215   1.080       .  S
N1214      C1216   1.371       .  A
N1214      C1477   1.456       .  S
C1216      H1217   1.081       .  S
O1222      V1229   1.906       .  S
O1222      C1232   1.265       .  A
O1223      V1229   1.905       .  S
O1223      C1233   1.261       .  A
O1224      C1234   1.264       .  A
O1225      C1234   1.261   1_554  A
O1226      V1230   1.884       .  S
O1226      C1233   1.264       .  A
O1228      V1230   1.912       .  S
O1228      C1231   1.266       .  A
V1229      V1230   2.088       .  T
C1231      C1433   1.484       .  S
C1232      C1501   1.486       .  S
C1233      C1448   1.461       .  S
C1234      C1441   1.464       .  S
O1235      V1243   1.899       .  S
O1235      C1245   1.265       .  A
O1236      V1243   1.899       .  S
O1236      C1246   1.264       .  A
O1237      V1243   1.881       .  S
O1237      C1247   1.264       .  A
O1238      V1243   1.901       .  S
O1238      C1248   1.260       .  A
O1239      V1244   1.890       .  S
O1239      C1248   1.265       .  A
O1240      V1244   1.907       .  S
O1240      C1247   1.261       .  A
O1241      V1244   1.903       .  S
O1241      C1246   1.265       .  A
O1242      V1244   1.907       .  S
O1242      C1245   1.265       .  A
V1243      V1244   2.089       .  T
C1245      C1429   1.481       .  S
C1246      C1482   1.475       .  S
C1247      C1451   1.462       .  S
C1248      C1438   1.461       .  S
O1250      V1257   1.913   1_655  S
O1251      V1257   1.900       .  S
O1253      C1262   1.266       .  A
O1254      V1258   1.904   1_465  S
O1254      C1261   1.260       .  A
O1256      V1258   1.904   1_455  S
O1256      C1259   1.264       .  A
C1260      C1469   1.468       .  S
C1261      C1420   1.462       .  S
C1262      C1410   1.457       .  S
O1263      V1271   1.901   1_655  S
O1264      V1271   1.884       .  S
O1265      V1271   1.901       .  S
O1266      V1271   1.877       .  S
O1267      V1272   1.884   1_545  S
O1267      C1276   1.265       .  A
O1268      V1272   1.907       .  S
O1268      C1275   1.261       .  A
O1269      V1272   1.901       .  S
O1269      C1274   1.266   1_565  A
O1270      V1272   1.902   1_655  S
O1270      C1273   1.264       .  A
C1273      C1458   1.483       .  S
C1275      C1423   1.464       .  S
C1276      C1413   1.459       .  S
C1277      C1279   1.536       .  S
C1277      C1281   1.544       .  S
C1277      C1280   1.530       .  S
C1277      C1393   1.527       .  S
C1278      C1282   1.541       .  S
C1278      C1284   1.536       .  S
C1278      C1283   1.545       .  S
C1278      C1397   1.528       .  S
C1279      C1287   1.378       .  A
C1280      C1291   1.370       .  A
C1281      C1295   1.378       .  A
C1282      C1285   1.381       .  A
C1283      C1289   1.385       .  A
C1284      C1292   1.374       .  A
C1285      H1298   1.079       .  S
N1286      C1287   1.359       .  A
N1286      C1386   1.439       .  S
C1287      H1288   1.083       .  S
C1289      H1299   1.080       .  S
N1290      C1291   1.355       .  A
C1291      H1297   1.080       .  S
C1292      H1294   1.080       .  S
N1293      C1295   1.358       .  A
N1293      C1389   1.442       .  S
C1295      H1296   1.082       .  S
C1300      C1302   1.534       .  S
C1300      C1304   1.555       .  S
C1300      C1303   1.533       .  S
C1300      C1398   1.534       .  S
C1301      C1305   1.545       .  S
C1301      C1307   1.539       .  S
C1301      C1306   1.541       .  S
C1301      C1394   1.532       .  S
C1302      C1310   1.376       .  A
C1302      C1305   1.394       .  A
C1303      C1314   1.373       .  A
C1303      C1306   1.395       .  A
C1304      C1318   1.388       .  A
C1304      C1307   1.400       .  A
C1305      C1308   1.382       .  A
C1306      C1312   1.383       .  A
C1307      C1315   1.377       .  A
C1308      N1309   1.362       .  A
C1308      H1321   1.079       .  S
N1309      C1310   1.357       .  A
N1309      C1377   1.444       .  S
C1310      H1311   1.081       .  S
C1312      N1313   1.363       .  A
C1312      H1322   1.080       .  S
N1313      C1314   1.356       .  A
N1313      C1430   1.442       .  S
C1314      H1320   1.082       .  S
C1315      N1316   1.361       .  A
C1315      H1317   1.080       .  S
N1316      C1318   1.360       .  A
N1316      C1382   1.449       .  S
C1318      H1319   1.080       .  S
C1323      C1325   1.531   1_545  S
C1323      C1326   1.528       .  S
C1323      C1374   1.536       .  S
C1324      C1328   1.537   1_545  S
C1324      C1329   1.535       .  S
C1324      C1369   1.524       .  S
C1325      C1333   1.368       .  A
C1326      C1337   1.373       .  A
C1327      C1341   1.377       .  A
C1328      C1331   1.376       .  A
C1329      C1335   1.373       .  A
C1330      C1338   1.382       .  A
C1331      N1332   1.360   1_556  A
C1331      H1344   1.081       .  S
N1332      C1390   1.441       .  S
C1333      H1334   1.083       .  S
C1338      N1339   1.358   1_556  A
C1338      H1340   1.078       .  S
N1339      C1385   1.439       .  S
C1341      H1342   1.081       .  S
C1346      C1348   1.552   1_545  S
C1346      C1349   1.534       .  S
C1346      C1370   1.531       .  S
C1347      C1351   1.543   1_545  S
C1347      C1352   1.549       .  S
C1347      C1373   1.528       .  S
C1348      C1356   1.381       .  A
C1348      C1351   1.402       .  A
C1349      C1360   1.373       .  A
C1349      C1352   1.397       .  A
C1350      C1364   1.377       .  A
C1350      C1353   1.393       .  A
C1351      C1354   1.384       .  A
C1352      C1358   1.389       .  A
C1353      C1361   1.379       .  A
C1354      N1355   1.363       .  A
C1354      H1367   1.081       .  S
N1355      C1356   1.357       .  A
N1355      C1381   1.446       .  S
C1356      H1357   1.079       .  S
N1359      C1402   1.431       .  S
C1361      N1362   1.363       .  A
C1361      H1363   1.079       .  S
N1362      C1364   1.357       .  A
N1362      C1378   1.443       .  S
C1364      H1365   1.083       .  S
C1369      C1370   1.343       .  D
C1369      H1371   1.075   1_545  S
C1373      C1374   1.346       .  D
C1374      H1376   1.085   1_545  S
C1377      C1378   1.347       .  D
C1377      H1379   1.085       .  S
C1378      H1380   1.084       .  S
C1381      C1382   1.349       .  D
C1381      H1383   1.084       .  S
C1382      H1384   1.085       .  S
C1385      C1386   1.348   1_554  D
C1386      H1388   1.084       .  S
C1389      C1390   1.350   1_556  D
C1389      H1391   1.084       .  S
C1393      C1394   1.349       .  D
C1393      H1395   1.083       .  S
C1394      H1396   1.084       .  S
C1397      C1398   1.344       .  D
C1397      H1399   1.077       .  S
C1398      H1400   1.086       .  S
C1401      C1402   1.339       .  D
C1402      H1404   1.088       .  S
C1405      C1406   1.345       .  D
C1409      C1414   1.401   1_655  A
C1409      H1415   1.084       .  S
C1410      C1411   1.402       .  A
C1411      C1412   1.396       .  A
C1411      H1416   1.084       .  S
C1412      C1413   1.403       .  A
C1412      H1417   1.084       .  S
C1414      H1418   1.084   1_455  S
C1419      C1420   1.404   1_655  A
C1419      C1424   1.399       .  A
C1419      H1425   1.084       .  S
C1421      C1422   1.399       .  A
C1421      H1426   1.084       .  S
C1422      H1427   1.084       .  S
C1423      C1424   1.404   1_455  A
C1424      H1428   1.084       .  S
C1429      C1430   1.346       .  D
C1429      H1431   1.085       .  S
C1430      H1432   1.087       .  S
C1433      C1434   1.347       .  D
C1433      H1435   1.085       .  S
C1437      C1438   1.404       .  A
C1437      C1442   1.399       .  A
C1437      H1443   1.084       .  S
C1438      C1439   1.403       .  A
C1439      C1440   1.399       .  A
C1439      H1444   1.084       .  S
C1440      C1441   1.404       .  A
C1440      H1445   1.083       .  S
C1441      C1442   1.403       .  A
C1442      H1446   1.084       .  S
C1447      C1448   1.402       .  A
C1447      C1452   1.398       .  A
C1447      H1453   1.084       .  S
C1448      C1449   1.403       .  A
C1449      C1450   1.398       .  A
C1449      H1454   1.084       .  S
C1450      C1451   1.403       .  A
C1450      H1455   1.084       .  S
C1451      C1452   1.403       .  A
C1452      H1456   1.084       .  S
C1457      C1458   1.349       .  D
C1457      H1459   1.087   1_565  S
C1461      C1462   1.349       .  D
C1461      H1463   1.086       .  S
C1465      C1466   1.345       .  D
C1465      H1467   1.087       .  S
C1469      C1470   1.342       .  D
C1470      H1472   1.087   1_545  S
C1473      C1474   1.344       .  D
C1473      H1475   1.084       .  S
C1474      H1476   1.084       .  S
C1477      C1478   1.350       .  D
C1477      H1479   1.085       .  S
C1478      H1480   1.085       .  S
C1481      C1482   1.345       .  D
C1481      H1483   1.087       .  S
C1482      H1484   1.085       .  S
C1485      C1486   1.347       .  D
C1485      H1487   1.084       .  S
C1489      C1490   1.347       .  D
C1489      H1491   1.083       .  S
C1493      C1494   1.345       .  D
C1493      H1495   1.086       .  S
C1494      H1496   1.078       .  S
C1497      C1498   1.340       .  D
C1497      H1499   1.074       .  S
C1498      H1500   1.087       .  S
C1501      C1502   1.349       .  D
C1501      H1503   1.084       .  S
