geometry optimzed in LAMMPS
_audit_creation_date              2020-11-30 
_audit_creation_method            'lammps2cif' 
_symmetry_space_group_name_H-M    'P1' 
_symmetry_Int_Tables_number       1 
_symmetry_cell_setting            triclinic 
loop_ 
_symmetry_equiv_pos_as_xyz 
  x,y,z 
_cell_length_a                    36.11891393 
_cell_length_b                    36.37749033370532 
_cell_length_c                    88.58475207955284 
_cell_angle_alpha                 90.41404412016402 
_cell_angle_beta                  89.47076209226898 
_cell_angle_gamma                 124.77201762305073 
loop_ 
_atom_site_label 
_atom_site_type_symbol 
_atom_site_fract_x 
_atom_site_fract_y 
_atom_site_fract_z 
_atom_site_charge 
C1          C  0.65017303  0.31861221  0.29318516     0.86500
C2          C  0.61746251  0.27119522  0.28649729    -0.53700
C3          C  0.61702915  0.27009273  0.27108160     0.09400
C4          C  0.64785034  0.31607630  0.26374879     0.20400
C5          C  0.69602316  0.33607637  0.28557268    -0.54500
C6          C  0.69461159  0.33490100  0.27022014     0.09500
C7          C  0.63551133  0.34722462  0.28602375    -0.54000
C8          C  0.63386368  0.34527944  0.27062350     0.10100
H9          H  0.59821657  0.24115290  0.29332887     0.14600
H10         H  0.64696829  0.31464877  0.25121730     0.00400
H11         H  0.72690019  0.34872947  0.29177414     0.14900
H12         H  0.62729620  0.36748668  0.29220349     0.14700
C13         C  0.66557852  0.31707993  0.35962181     0.86500
C14         C  0.61838745  0.28964736  0.36694481    -0.53700
C15         C  0.61914404  0.28907330  0.38233186     0.09400
C16         C  0.66642507  0.31612512  0.38908362     0.20400
C17         C  0.68902350  0.36385891  0.36703451    -0.54500
C18         C  0.68930744  0.36322767  0.38245723     0.09500
C19         C  0.68980929  0.29680605  0.36635929    -0.54000
C20         C  0.68994029  0.29633202  0.38175860     0.10100
H21         H  0.58734645  0.27144907  0.36050846     0.14600
H22         H  0.66567292  0.31530314  0.40161454     0.00400
H23         H  0.70289527  0.39451795  0.36066270     0.14900
H24         H  0.70498770  0.28322183  0.35994143     0.14700
N25         N  0.26476772  0.88595185  0.52638433    -0.27300
N26         N  0.30207307  0.89114986  0.53109737    -0.35100
C27         C  0.33760933  0.93234352  0.52730690     0.01100
C28         C  0.32172042  0.95422472  0.51999507     0.07100
C29         C  0.27537241  0.92383412  0.51966666    -0.06000
H30         H  0.37242405  0.94496846  0.52938696     0.07800
H31         H  0.25137898  0.92792978  0.51412086     0.09000
Cu32       Cu  0.30202072  0.84009055  0.54133149     0.44200
Cu33       Cu  0.20249586  0.82516140  0.52697210     0.42000
Cu34       Cu  0.20332531  0.72728431  0.53345980     0.43900
N35         N  0.29255207  0.78226082  0.54975474    -0.34700
N36         N  0.25834318  0.74129687  0.54611011    -0.28900
C37         C  0.26283402  0.71164248  0.55334292    -0.05000
C38         C  0.30099054  0.73505938  0.56219934     0.07200
C39         C  0.31907052  0.77973346  0.55964091     0.01000
H40         H  0.23893958  0.67568719  0.55274990     0.08600
H41         H  0.34922862  0.80832416  0.56458946     0.07700
N42         N  0.14773067  0.72429946  0.52531341    -0.36100
N43         N  0.14702242  0.76007847  0.52399130    -0.37300
C44         C  0.10627180  0.74752420  0.51913501    -0.03500
C45         C  0.07996034  0.70164021  0.51711464     0.05100
C46         C  0.10737824  0.68794715  0.52109497     0.03200
H47         H  0.09718145  0.77045681  0.51660532     0.08300
H48         H  0.09866482  0.65413542  0.52095725     0.07100
N49         N  0.83671481  0.58365830  0.48138165    -0.27300
N50         N  0.85074359  0.56607469  0.47177721    -0.35100
C51         C  0.89234216  0.57872875  0.47573061     0.01100
C52         C  0.90533933  0.60580172  0.48845782     0.07100
C53         C  0.86905971  0.60818358  0.49165799    -0.06000
H54         H  0.91185325  0.56941924  0.46959436     0.07800
H55         H  0.86602905  0.62609129  0.50083425     0.09000
Cu56       Cu  0.81255911  0.52650809  0.45358584     0.44200
Cu57       Cu  0.77384488  0.57272493  0.48007901     0.42000
Cu58       Cu  0.70579063  0.51257648  0.44706185     0.43900
N59         N  0.76978277  0.48992508  0.43577075    -0.34700
N60         N  0.73190111  0.48624586  0.43290072    -0.28900
C61         C  0.71216981  0.45937869  0.42077534    -0.05000
C62         C  0.73877003  0.44524769  0.41593523     0.07200
C63         C  0.77465243  0.46494772  0.42578218     0.01000
H64         H  0.67941824  0.44838204  0.41650203     0.08600
H65         H  0.80164695  0.46020102  0.42600156     0.07700
N66         N  0.68540436  0.53680867  0.46437856    -0.36100
N67         N  0.70972975  0.55731354  0.47655620    -0.28300
C68         C  0.68734294  0.56839272  0.48557125    -0.03500
C69         C  0.64710334  0.55471446  0.47872872     0.05100
C70         C  0.64708219  0.53492065  0.46527257     0.03200
H71         H  0.70046272  0.58703394  0.49600258     0.08300
H72         H  0.62140347  0.52076260  0.45665749     0.07100
N73         N  0.43257204  0.18315218  0.47712214    -0.27300
N74         N  0.44299653  0.16372792  0.46693693    -0.35100
C75         C  0.43453061  0.12551860  0.47272524     0.01100
C76         C  0.41722542  0.12040942  0.48717411     0.07100
C77         C  0.41661594  0.15767598  0.48957720    -0.06000
H78         H  0.43695786  0.10137746  0.46642156     0.07800
H79         H  0.40292508  0.16440785  0.49928002     0.09000
Cu80       Cu  0.45970027  0.18642494  0.44490202     0.44200
Cu81       Cu  0.43261114  0.23874624  0.47264280     0.42000
Cu82       Cu  0.43775560  0.26924643  0.43361438     0.43900
N83         N  0.47341664  0.21536257  0.42371359    -0.34700
N84         N  0.46436246  0.24420923  0.41944218    -0.28900
C85         C  0.48316863  0.26065646  0.40580988    -0.05000
C86         C  0.50573169  0.24189342  0.40143081     0.07200
C87         C  0.49844376  0.21299543  0.41297912     0.01000
H88         H  0.48471407  0.28799877  0.40033759     0.08600
H89         H  0.51337617  0.19448807  0.41411763     0.07700
N90         N  0.42451255  0.29786861  0.45127298    -0.36100
N91         N  0.42431242  0.28750164  0.46554161    -0.28300
C92         C  0.41609690  0.31219712  0.47437366    -0.03500
C93         C  0.41087674  0.33974612  0.46527862     0.05100
C94         C  0.41634878  0.32959677  0.45064544     0.03200
H95         H  0.41306249  0.30924108  0.48652707     0.08300
H96         H  0.41477676  0.34420720  0.44029175     0.07100
N97         N  0.17234396  0.43403336  0.49982542    -0.27300
N98         N  0.16251228  0.44743727  0.51222465    -0.35100
C99         C  0.11832193  0.43116426  0.51199596     0.01100
C100        C  0.09978757  0.40591885  0.49897183     0.07100
C101        C  0.13491210  0.40840554  0.49160212    -0.06000
H102        H  0.10057531  0.43541854  0.52098355     0.07800
H103        H  0.13319666  0.39184450  0.48117135     0.09000
Cu104      Cu  0.20900433  0.48360386  0.52945285     0.44200
Cu105      Cu  0.23453169  0.44723089  0.49443457     0.42000
Cu106      Cu  0.31903394  0.50425229  0.52183665     0.43900
N107        N  0.26469912  0.52044318  0.54368283    -0.34700
N108        N  0.30453644  0.52850086  0.54043832    -0.28900
C109        C  0.33462815  0.55663383  0.55074813    -0.05000
C110        C  0.31294698  0.56649767  0.56116203     0.07200
C111        C  0.26850503  0.54299712  0.55640233     0.01000
H112        H  0.37019298  0.57019811  0.55037655     0.08600
H113        H  0.24173706  0.54440639  0.56124906     0.07700
N114        N  0.32734241  0.47669199  0.50278306    -0.36100
N115        N  0.29621227  0.45647722  0.49226531    -0.28300
C116        C  0.30878641  0.43801927  0.48206154    -0.03500
C117        C  0.34966002  0.44658360  0.48651086     0.05100
C118        C  0.36046162  0.47132552  0.49969392     0.03200
H119        H  0.28771147  0.41633572  0.47294792     0.08300
H120        H  0.38874794  0.48212456  0.50702496     0.07100
N121        N  0.84917642  0.23440412  0.47181701    -0.27300
N122        N  0.85298088  0.27012521  0.46641174    -0.35100
C123        C  0.89293314  0.30697081  0.47050858     0.01100
C124        C  0.91564241  0.29376120  0.47885292     0.07100
C125        C  0.88679591  0.24745307  0.47945666    -0.06000
H126        H  0.90538722  0.34059940  0.46700490     0.07800
H127        H  0.89288033  0.22480429  0.48485504     0.09000
Cu128      Cu  0.80603598  0.26556603  0.45206145     0.44200
Cu129      Cu  0.79307710  0.16999824  0.46791560     0.42000
Cu130      Cu  0.70768256  0.15524606  0.44172576     0.43900
N131        N  0.76366719  0.25392666  0.43450222    -0.34700
N132        N  0.72903560  0.21414086  0.43005220    -0.28900
C133        C  0.71050140  0.21972200  0.41788021    -0.05000
C134        C  0.73470575  0.26515749  0.41474981     0.07200
C135        C  0.76769814  0.28561544  0.42556679     0.01000
H136        H  0.68032993  0.19310144  0.41227767     0.08600
H137        H  0.79247685  0.32118302  0.42703168     0.07700
N138        N  0.69904284  0.10450716  0.45562015    -0.36100
N139        N  0.73122181  0.10984488  0.46441575    -0.28300
C140        C  0.71632134  0.07099411  0.47137127    -0.03500
C141        C  0.67239768  0.03968385  0.46700457     0.05100
C142        C  0.66234102  0.06208224  0.45706647     0.03200
H143        H  0.73572246  0.06622895  0.47935500     0.08300
H144        H  0.63095939  0.04835574  0.45114837     0.07100
N145        N  0.53556850  0.78777188  0.49427427    -0.27300
N146        N  0.51621511  0.79975020  0.50395736    -0.35100
C147        C  0.53063933  0.84229682  0.50107546     0.01100
C148        C  0.56104810  0.85798382  0.48913633     0.07100
C149        C  0.56333140  0.82245493  0.48514572    -0.06000
H150        H  0.52203495  0.86136121  0.50781582     0.07800
H151        H  0.58467393  0.82223458  0.47654533     0.09000
Cu152      Cu  0.47873768  0.76034678  0.52237435     0.44200
Cu153      Cu  0.52737748  0.72667782  0.49510958     0.42000
Cu154      Cu  0.48417840  0.66427333  0.52971679     0.43900
N155        N  0.46047267  0.72596101  0.54275754    -0.34700
N156        N  0.46342106  0.69204727  0.54553205    -0.28900
C157        C  0.46193277  0.68634219  0.56056573    -0.05000
C158        C  0.45796173  0.71797118  0.56773067     0.07200
C159        C  0.45702851  0.74230877  0.55596403     0.01000
H160        H  0.47072826  0.66573817  0.56596370     0.08600
H161        H  0.46165909  0.77434326  0.55703572     0.07700
N162        N  0.51151394  0.64755757  0.51229750    -0.36100
N163        N  0.52520325  0.66964166  0.49939240    -0.28300
C164        C  0.54284266  0.65301179  0.49060617    -0.03500
C165        C  0.54096143  0.61906402  0.49833721     0.05100
C166        C  0.52092217  0.61657649  0.51212178     0.03200
H167        H  0.55885214  0.66689147  0.47979506     0.08300
H168        H  0.51495124  0.59490787  0.52149887     0.07100
N169        N  0.48099894  0.38274457  0.17199947    -0.27300
N170        N  0.46511752  0.35528747  0.18363322    -0.35100
C171        C  0.42104440  0.32362568  0.18153433     0.01100
C172        C  0.40840698  0.33149552  0.16784796     0.07100
C173        C  0.44750357  0.36928249  0.16209771    -0.06000
H174        H  0.39964387  0.29758273  0.18959789     0.07800
H175        H  0.45083340  0.38721481  0.15191826     0.09000
Cu176      Cu  0.50428450  0.36548358  0.20218549     0.44200
Cu177      Cu  0.54575809  0.44054301  0.17180011     0.42000
Cu178      Cu  0.60978417  0.47496910  0.20739050     0.43900
N179        N  0.54893146  0.38106547  0.21955069    -0.34700
N180        N  0.58665016  0.42088473  0.22200297    -0.28900
C181        C  0.60842315  0.41756515  0.23366841    -0.05000
C182        C  0.58321503  0.37343562  0.23854534     0.07200
C183        C  0.54606241  0.35148389  0.22930125     0.01000
H184        H  0.64166996  0.44423079  0.23746397     0.08600
H185        H  0.51984918  0.31596835  0.22916222     0.07700
N186        N  0.62620299  0.51690748  0.18876236    -0.36100
N187        N  0.60444185  0.50294643  0.17577344    -0.28300
C188        C  0.62280629  0.53739589  0.16611400    -0.03500
C189        C  0.65754445  0.57531363  0.17328945     0.05100
C190        C  0.65875773  0.56112521  0.18768092     0.03200
H191        H  0.60985112  0.53544096  0.15495754     0.08300
H192        H  0.68112060  0.58151593  0.19676355     0.07100
N193        N  0.89605755  0.48256285  0.16869591    -0.27300
N194        N  0.87495247  0.49349972  0.17793504    -0.35100
C195        C  0.88349728  0.53308141  0.17368168     0.01100
C196        C  0.91188844  0.54787002  0.16122713     0.07100
C197        C  0.91909970  0.51496304  0.15839316    -0.06000
H198        H  0.87229715  0.55099450  0.17976876     0.07800
H199        H  0.94069956  0.51517376  0.14980150     0.09000
Cu200      Cu  0.84158775  0.45613106  0.19684940     0.44200
Cu201      Cu  0.89579362  0.42628189  0.17158726     0.42000
Cu202      Cu  0.85128956  0.36317026  0.20639725     0.43900
N203        N  0.81472212  0.41688155  0.21585800    -0.34700
N204        N  0.81855660  0.38409062  0.21969410    -0.28900
C205        C  0.79471522  0.36510409  0.23248835    -0.05000
C206        C  0.77505604  0.38707563  0.23670279     0.07200
C207        C  0.78832850  0.41940891  0.22592041     0.01000
H208        H  0.78966212  0.33576164  0.23771347     0.08600
H209        H  0.77798659  0.44194661  0.22506341     0.07700
N210        N  0.88219349  0.34913833  0.18952035    -0.36100
N211        N  0.89680504  0.37169793  0.17671274    -0.28300
C212        C  0.91402350  0.35471224  0.16792499    -0.03500
C213        C  0.91053954  0.31982583  0.17552230     0.05100
C214        C  0.89031518  0.31725670  0.18924362     0.03200
H215        H  0.92909760  0.36772672  0.15693964     0.08300
H216        H  0.88180778  0.29379558  0.19828176     0.07100
N217        N  0.15729211  0.22580354  0.14274593    -0.27300
N218        N  0.16936981  0.22033100  0.12922246    -0.35100
C219        C  0.21264362  0.23376248  0.12970358     0.01100
C220        C  0.22844487  0.24800537  0.14425115     0.07100
C221        C  0.19233162  0.24236405  0.15218580    -0.06000
H222        H  0.23106435  0.23284997  0.12017918     0.07800
H223        H  0.19190527  0.25103825  0.16386238     0.09000
Cu224      Cu  0.12615807  0.19303940  0.11081589     0.44200
Cu225      Cu  0.09541455  0.21470100  0.14778499     0.42000
Cu226      Cu  0.01497074  0.16633731  0.11786176     0.43900
N227        N  0.07245376  0.15497852  0.09611619    -0.34700
N228        N  0.03123767  0.14336955  0.09924195    -0.28900
C229        C  0.00253372  0.11304655  0.08905107    -0.05000
C230        C  0.02684028  0.10584330  0.07881866     0.07200
C231        C  0.07112268  0.13289809  0.08362184     0.01000
H232        H  0.96631856  0.09598320  0.08945961     0.08600
H233        H  0.09947037  0.13353663  0.07916157     0.07700
N234        N  0.00733582  0.19477309  0.13690651    -0.36100
N235        N  0.03610427  0.21136113  0.14822854    -0.28300
C236        C  0.02345815  0.23024053  0.15827329    -0.03500
C237        C  0.98518167  0.22578230  0.15288391     0.05100
C238        C  0.97596689  0.20305457  0.13932028     0.03200
H239        H  0.04261197  0.24876958  0.16816028     0.08300
H240        H  0.94950832  0.19474805  0.13145153     0.07100
N241        N  0.49300984  0.09081521  0.17000894    -0.27300
N242        N  0.47606529  0.09635768  0.18242532    -0.35100
C243        C  0.43408101  0.08459688  0.17949948     0.01100
C244        C  0.42441788  0.07149823  0.16449034     0.07100
C245        C  0.46265231  0.07602747  0.15886211    -0.06000
H246        H  0.41186002  0.08454219  0.18778544     0.07800
H247        H  0.46699236  0.06640715  0.14775100     0.09000
Cu248      Cu  0.51033996  0.11796326  0.20292599     0.44200
Cu249      Cu  0.55293745  0.09558894  0.16909723     0.42000
Cu250      Cu  0.61078873  0.11788100  0.20414685     0.43900
N251        N  0.55562373  0.14432039  0.22086421    -0.34700
N252        N  0.59264959  0.14501275  0.22103616    -0.28900
C253        C  0.61802161  0.16973524  0.23285168    -0.05000
C254        C  0.59592030  0.18502399  0.24062621     0.07200
C255        C  0.55635517  0.16821161  0.23272127     0.01000
H256        H  0.65151256  0.17836299  0.23506795     0.08600
H257        H  0.53194610  0.17607572  0.23464295     0.07700
N258        N  0.62436534  0.09322632  0.18516600    -0.36100
N259        N  0.60438140  0.08701969  0.17206195    -0.28300
C260        C  0.61906120  0.06979542  0.16213298    -0.03500
C261        C  0.64952946  0.06440291  0.16935434     0.05100
C262        C  0.65204545  0.07968285  0.18396428     0.03200
H263        H  0.60653379  0.05963298  0.15075044     0.08300
H264        H  0.67189881  0.08020418  0.19313763     0.07100
N265        N  0.75606108  0.81865472  0.14337570    -0.27300
N266        N  0.76859358  0.80705503  0.13119188    -0.35100
C267        C  0.76096887  0.76677175  0.13352165     0.01100
C268        C  0.74281251  0.75218680  0.14786840     0.07100
C269        C  0.74045489  0.78617161  0.15379256    -0.06000
H270        H  0.76714835  0.74896526  0.12518562     0.07800
H271        H  0.72599564  0.78619066  0.16453933     0.09000
Cu272      Cu  0.79278141  0.84458808  0.11142838     0.44200
Cu273      Cu  0.75453081  0.87483851  0.14470492     0.42000
Cu274      Cu  0.78717645  0.94055853  0.11088291     0.43900
N275        N  0.81745962  0.88998780  0.09364617    -0.34700
N276        N  0.81584949  0.92540141  0.09370425    -0.28900
C277        C  0.83850635  0.95088604  0.08163879    -0.05000
C278        C  0.85495788  0.93057640  0.07347818     0.07200
C279        C  0.84098147  0.89190216  0.08140728     0.01000
H280        H  0.84462631  0.98313325  0.07940502     0.08600
H281        H  0.84989881  0.86862954  0.07907912     0.07700
N282        N  0.75843788  0.95062467  0.12942377    -0.36100
N283        N  0.74724932  0.92709370  0.14198146    -0.28300
C284        C  0.72868924  0.94092417  0.15169251    -0.03500
C285        C  0.72795514  0.97480850  0.14491790     0.05100
C286        C  0.74719171  0.97995991  0.13077615     0.03200
H287        H  0.71546684  0.92631532  0.16269361     0.08300
H288        H  0.75252721  0.00313931  0.12203284     0.07100
N289        N  0.18745300  0.91375983  0.12730796    -0.27300
N290        N  0.19695441  0.94531980  0.11752226    -0.35100
C291        C  0.23841339  0.98209251  0.12063509     0.01100
C292        C  0.25490762  0.97301911  0.13313887     0.07100
C293        C  0.22167648  0.92941595  0.13697153    -0.06000
H294        H  0.25457058  0.01350236  0.11464265     0.07800
H295        H  0.22214052  0.91034794  0.14619723     0.09000
Cu296      Cu  0.14957762  0.93625763  0.10171248     0.44200
Cu297      Cu  0.12801069  0.85131204  0.12811775     0.42000
Cu298      Cu  0.03434969  0.83456001  0.10953478     0.43900
N299        N  0.09117152  0.91749956  0.08990568    -0.34700
N300        N  0.05027906  0.88233765  0.09341391    -0.28900
C301        C  0.01990868  0.88163010  0.08459074    -0.05000
C302        C  0.04234053  0.91743927  0.07488161     0.07200
C303        C  0.08755781  0.93969227  0.07850911     0.01000
H304        H  0.98386382  0.85699747  0.08534513     0.08600
H305        H  0.11541765  0.97079730  0.07375779     0.07700
N306        N  0.02916350  0.78627707  0.12331515    -0.36100
N307        N  0.06522596  0.79240629  0.12961984    -0.28300
C308        C  0.05371789  0.75510763  0.13688804    -0.03500
C309        C  0.00793993  0.72383917  0.13517380     0.05100
C310        C  0.99321284  0.74472716  0.12655331     0.03200
H311        H  0.07703078  0.75119641  0.14302046     0.08300
H312        H  0.95940090  0.73036146  0.12250367     0.07100
C313        C  0.99106446  0.98979053  0.02107037     0.86500
C314        C  0.94321317  0.95794123  0.02784640    -0.53700
C315        C  0.94223839  0.95638093  0.04322064     0.09400
C316        C  0.98856456  0.98566958  0.05051288     0.20400
C317        C  0.01060463  0.03524635  0.02903471    -0.54500
C318        C  0.00898445  0.03289907  0.04442734     0.09500
C319        C  0.01851394  0.97316087  0.02780226    -0.54000
C320        C  0.01669430  0.97075996  0.04320847     0.10100
H321        H  0.91285174  0.93913743  0.02108772     0.14600
H322        H  0.98750137  0.98390394  0.06303023     0.00400
H323        H  0.02456021  0.06646133  0.02300605     0.14900
H324        H  0.03737217  0.96362159  0.02135030     0.14700
C325        C  0.98874346  0.01104034  0.95484591     0.86500
C326        C  0.96953587  0.96800838  0.94534845    -0.53700
C327        C  0.97399252  0.97524398  0.93008876     0.09400
C328        C  0.99625434  0.02435132  0.92569190     0.20400
C329        C  0.03778778  0.04333692  0.94909691    -0.54500
C330        C  0.04121709  0.04993329  0.93387696     0.09500
C331        C  0.96367086  0.03106995  0.94875626    -0.54000
C332        C  0.96806405  0.03817149  0.93356091     0.10100
H333        H  0.95451635  0.93509337  0.95025349     0.14600
H334        H  0.99946917  0.02998063  0.91329797     0.00400
H335        H  0.06709254  0.05899026  0.95637033     0.14900
H336        H  0.94442816  0.03961835  0.95545671     0.14700
C337        C  0.35568105  0.68231687  0.61961786     0.86500
C338        C  0.32950637  0.63705733  0.61103745    -0.53700
C339        C  0.33893655  0.64091800  0.59590210     0.09400
C340        C  0.37310539  0.68938674  0.59061009     0.20400
C341        C  0.40522954  0.70332734  0.61560184    -0.54500
C342        C  0.41500167  0.70784417  0.60055536     0.09500
C343        C  0.34362842  0.71095888  0.61111819    -0.54000
C344        C  0.35206221  0.71397189  0.59594214     0.10100
H345        H  0.30474113  0.60492694  0.61605985     0.14600
H346        H  0.37988088  0.69286207  0.57832243     0.00400
H347        H  0.43112487  0.71545566  0.62416285     0.14900
H348        H  0.32824855  0.72605627  0.61653388     0.14700
C349        C  0.35272686  0.68619065  0.68641720     0.86500
C350        C  0.30503746  0.66361365  0.69330235    -0.53700
C351        C  0.30351700  0.65996977  0.70864015     0.09400
C352        C  0.34962655  0.67932442  0.71579621     0.20400
C353        C  0.38120416  0.73182741  0.69482696    -0.54500
C354        C  0.37873551  0.72775059  0.71020260     0.09500
C355        C  0.37077086  0.65966258  0.69259754    -0.54000
C356        C  0.36891428  0.65590784  0.70794875     0.10100
H357        H  0.27535598  0.65275223  0.68663230     0.14600
H358        H  0.34904524  0.67726891  0.72830290     0.00400
H359        H  0.40015566  0.76440979  0.68952853     0.14900
H360        H  0.38443617  0.64568641  0.68544079     0.14700
N361        N  0.49417300  0.90510585  0.81318586    -0.27300
N362        N  0.51082703  0.89848534  0.80093669    -0.35100
C363        C  0.55429690  0.91450467  0.80343596     0.01100
C364        C  0.56518945  0.93169201  0.81799363     0.07100
C365        C  0.52617268  0.92499930  0.82380803    -0.06000
H366        H  0.57662828  0.91483827  0.79512848     0.07800
H367        H  0.52213494  0.93647711  0.83460097     0.09000
Cu368      Cu  0.47378168  0.87078257  0.78119946     0.44200
Cu369      Cu  0.43168573  0.89431520  0.81433064     0.42000
Cu370      Cu  0.36553493  0.85893633  0.78091833     0.43900
N371        N  0.42688011  0.84042209  0.76383500    -0.34700
N372        N  0.38740093  0.83506718  0.76403594    -0.28900
C373        C  0.36321538  0.80987053  0.75211376    -0.05000
C374        C  0.38875273  0.79947508  0.74386286     0.07200
C375        C  0.42895943  0.81932334  0.75161515     0.01000
H376        H  0.32876497  0.79840578  0.74993753     0.08600
H377        H  0.45633253  0.81600523  0.74917320     0.07700
N378        N  0.35155931  0.88385882  0.79977187    -0.36100
N379        N  0.37533819  0.89503050  0.81228020    -0.28300
C380        C  0.36030562  0.91151514  0.82232823    -0.03500
C381        C  0.32539368  0.91114433  0.81586795     0.05100
C382        C  0.32077773  0.89341608  0.80150456     0.03200
H383        H  0.37563820  0.92537723  0.83318587     0.08300
H384        H  0.29762437  0.88888945  0.79282752     0.07100
N385        N  0.24867626  0.17535156  0.83964267    -0.27300
N386        N  0.23164373  0.18780776  0.85010745    -0.35100
C387        C  0.24153327  0.22841714  0.84651760     0.01100
C388        C  0.26665397  0.24236636  0.83327533     0.07100
C389        C  0.27042930  0.20781072  0.82925406    -0.06000
H390        H  0.23362770  0.24757130  0.85353228     0.07800
H391        H  0.28894059  0.20691124  0.81975400     0.09000
Cu392      Cu  0.20199967  0.15129378  0.86972054     0.44200
Cu393      Cu  0.24567825  0.11700917  0.84071914     0.42000
Cu394      Cu  0.20933639  0.05530985  0.87549727     0.43900
N395        N  0.17789084  0.11043296  0.88864854    -0.34700
N396        N  0.18095783  0.07630706  0.89084686    -0.28900
C397        C  0.15897326  0.05538884  0.90368979    -0.05000
C398        C  0.14104198  0.07711720  0.90983231     0.07200
C399        C  0.15390693  0.11202756  0.90001177     0.01000
H400        H  0.15395526  0.02485984  0.90775283     0.08600
H401        H  0.14472319  0.13556904  0.90057598     0.07700
N402        N  0.23340096  0.03854069  0.85714962    -0.36100
N403        N  0.24522420  0.06071095  0.84427595    -0.28300
C404        C  0.25857772  0.04213072  0.83446140    -0.03500
C405        C  0.25531740  0.00647047  0.84144140     0.05100
C406        C  0.23932492  0.00526494  0.85588341     0.03200
H407        H  0.27114577  0.05473001  0.82321416     0.08300
H408        H  0.23245233  0.98198246  0.86480684     0.07100
N409        N  0.10511189  0.54604906  0.81233535    -0.27300
N410        N  0.12572217  0.53223132  0.80417444    -0.35100
C411        C  0.11422068  0.49236205  0.80937372     0.01100
C412        C  0.08426923  0.48021917  0.82124617     0.07100
C413        C  0.07910567  0.51494838  0.82279202    -0.06000
H414        H  0.12413304  0.47219335  0.80416815     0.07800
H415        H  0.05683150  0.51670007  0.83054446     0.09000
Cu416      Cu  0.16066884  0.56460719  0.78468899     0.44200
Cu417      Cu  0.11068288  0.60454510  0.80751429     0.42000
Cu418      Cu  0.15286026  0.65469726  0.77031646     0.43900
N419        N  0.18572696  0.59579960  0.76410135    -0.34700
N420        N  0.18220380  0.62730713  0.75848781    -0.28900
C421        C  0.20432942  0.64071138  0.74513522    -0.05000
C422        C  0.22249235  0.61642737  0.74237575     0.07200
C423        C  0.21013428  0.58858099  0.75462991     0.01000
H424        H  0.20952228  0.66818336  0.73851508     0.08600
H425        H  0.22000775  0.56610723  0.75687204     0.07700
N426        N  0.12881544  0.67859488  0.78649178    -0.36100
N427        N  0.11596805  0.66121682  0.80017442    -0.28300
C428        C  0.10437971  0.68453895  0.80825681    -0.03500
C429        C  0.10952179  0.71811743  0.79929692     0.05100
C430        C  0.12482737  0.71322849  0.78548415     0.03200
H431        H  0.09148317  0.67647546  0.81970107     0.08300
H432        H  0.13269501  0.73343727  0.77549694     0.07100
N433        N  0.85656215  0.80448846  0.82536459    -0.27300
N434        N  0.84139137  0.80961145  0.83830478    -0.35100
C435        C  0.79778847  0.79426097  0.83666132     0.01100
C436        C  0.78497945  0.77903634  0.82195960     0.07100
C437        C  0.82322561  0.78621576  0.81515178    -0.06000
H438        H  0.77678870  0.79354305  0.84560441     0.07800
H439        H  0.82600722  0.77661509  0.80383403     0.09000
Cu440      Cu  0.88029868  0.83660272  0.85774827     0.44200
Cu441      Cu  0.92000900  0.81733191  0.82233512     0.42000
Cu442      Cu  0.99431995  0.86622074  0.85389522     0.43900
N443        N  0.92960558  0.87161055  0.87419134    -0.34700
N444        N  0.97171482  0.88425782  0.87232066    -0.28900
C445        C  0.99671952  0.91118603  0.88383439    -0.05000
C446        C  0.96902416  0.91499493  0.89360632     0.07200
C447        C  0.92663012  0.88952088  0.88714534     0.01000
H448        H  0.03278012  0.92794004  0.88478075     0.08600
H449        H  0.89666204  0.88684120  0.89099357     0.07700
N450        N  0.00839448  0.84206982  0.83491167    -0.36100
N451        N  0.98140894  0.82483615  0.82313013    -0.28300
C452        C  0.99768720  0.80888434  0.81330281    -0.03500
C453        C  0.03671800  0.81600741  0.81922160     0.05100
C454        C  0.04241394  0.83727549  0.83294732     0.03200
H455        H  0.98048630  0.79043209  0.80315643     0.08300
H456        H  0.06818207  0.84673545  0.84125336     0.07100
N457        N  0.80454018  0.10769956  0.85174893    -0.27300
N458        N  0.79632032  0.07755470  0.86196688    -0.35100
C459        C  0.75558280  0.03959550  0.85923844     0.01100
C460        C  0.73786566  0.04616301  0.84655834     0.07100
C461        C  0.76981884  0.08967074  0.84213024    -0.06000
H462        H  0.74056977  0.00915293  0.86573782     0.07800
H463        H  0.76783463  0.10717373  0.83268962     0.09000
Cu464      Cu  0.84298436  0.08877105  0.87820928     0.44200
Cu465      Cu  0.86220002  0.17207823  0.85111640     0.42000
Cu466      Cu  0.95289616  0.19604412  0.87493774     0.43900
N467        N  0.89935431  0.10627287  0.89071671    -0.34700
N468        N  0.93946847  0.14437657  0.88900117    -0.28900
C469        C  0.96957377  0.14329327  0.89743868    -0.05000
C470        C  0.94735168  0.10300871  0.90500785     0.07200
C471        C  0.90286132  0.08025708  0.90050169     0.01000
H472        H  0.00525049  0.16957972  0.89778804     0.08600
H473        H  0.87563650  0.04638030  0.90342953     0.07700
N474        N  0.95691149  0.24286359  0.86052017    -0.36100
N475        N  0.92285941  0.23410945  0.85204886    -0.28300
C476        C  0.93498967  0.27093282  0.84423551    -0.03500
C477        C  0.97905688  0.30452439  0.84785431     0.05100
C478        C  0.99196080  0.28549285  0.85819349     0.03200
H479        H  0.91356726  0.27272665  0.83625991     0.08300
H480        H  0.02422160  0.30150369  0.86373426     0.07100
N481        N  0.53862686  0.60662835  0.79310779    -0.27300
N482        N  0.54657866  0.63338480  0.78167434    -0.35100
C483        C  0.58851854  0.67105990  0.78312877     0.01100
C484        C  0.60724592  0.66778801  0.79625106     0.07100
C485        C  0.57457328  0.62643566  0.80219700    -0.06000
H486        H  0.60370513  0.69916439  0.77546581     0.07800
H487        H  0.57675124  0.61153348  0.81237693     0.09000
Cu488      Cu  0.49720673  0.61735154  0.76572854     0.44200
Cu489      Cu  0.47931557  0.54474405  0.79642585     0.42000
Cu490      Cu  0.38321946  0.51851806  0.77580230     0.43900
N491        N  0.43826681  0.59651606  0.75404011    -0.34700
N492        N  0.39738554  0.56264852  0.75821087    -0.28900
C493        C  0.36678894  0.56203168  0.74945801    -0.05000
C494        C  0.38924815  0.59648116  0.73912717     0.07200
C495        C  0.43454044  0.61770056  0.74234500     0.01000
H496        H  0.33066391  0.53896680  0.75082478     0.08600
H497        H  0.46249601  0.64814020  0.73728178     0.07700
N498        N  0.38043702  0.47610415  0.79215401    -0.36100
N499        N  0.41696563  0.48546578  0.79918469    -0.28300
C500        C  0.40657476  0.45066497  0.80786575    -0.03500
C501        C  0.36105739  0.41783113  0.80641630     0.05100
C502        C  0.34536304  0.43508131  0.79641922     0.03200
H503        H  0.43053614  0.44921075  0.81460945     0.08300
H504        H  0.31156025  0.41820814  0.79201235     0.07100
C505        C  0.70114108  0.72888324  0.82476258    -0.13300
C506        C  0.73916220  0.75472054  0.81544418     0.08800
C507        C  0.73308186  0.75468715  0.79977670    -0.13300
C508        C  0.68988078  0.72809609  0.79351587    -0.13300
C509        C  0.65222060  0.70034773  0.80279563     0.08800
C510        C  0.65820565  0.70167491  0.81849217    -0.13300
H511        H  0.70470066  0.72810968  0.83685483     0.12800
H512        H  0.76180746  0.77466852  0.79234518     0.12800
H513        H  0.68618110  0.72772914  0.78138872     0.12800
H514        H  0.62968162  0.68107694  0.82594128     0.12800
C515        C  0.07883729  0.41571550  0.83347290    -0.13300
C516        C  0.05792945  0.43640218  0.82878984     0.08800
C517        C  0.01125204  0.41408401  0.83073416    -0.13300
C518        C  0.98562354  0.37115831  0.83692961    -0.13300
C519        C  0.00644455  0.35035929  0.84166193     0.08800
C520        C  0.05337868  0.37326986  0.84008429    -0.13300
H521        H  0.11484930  0.43246706  0.83203689     0.12800
H522        H  0.99443755  0.42932960  0.82705262     0.12800
H523        H  0.94953839  0.35433134  0.83808832     0.12800
H524        H  0.07020081  0.35786567  0.84355827     0.12800
C525        C  0.07824547  0.76281745  0.79326943    -0.13300
C526        C  0.09735508  0.74934596  0.80368527     0.08800
C527        C  0.10086213  0.76241778  0.81885176    -0.13300
C528        C  0.08341412  0.78628722  0.82370603    -0.13300
C529        C  0.06132028  0.79701369  0.81354685     0.08800
C530        C  0.05995207  0.78607517  0.79819045    -0.13300
H531        H  0.07520283  0.75325146  0.78150472     0.12800
H532        H  0.11600890  0.75302635  0.82708990     0.12800
H533        H  0.08517520  0.79416310  0.83559111     0.12800
H534        H  0.04366915  0.79442532  0.79005715     0.12800
C535        C  0.27021462  0.31081022  0.82598326    -0.13300
C536        C  0.28996613  0.28690052  0.82614923     0.08800
C537        C  0.33287703  0.30621497  0.81968511    -0.13300
C538        C  0.35599918  0.34896487  0.81340913    -0.13300
C539        C  0.33610043  0.37265745  0.81305981     0.08800
C540        C  0.29284400  0.35314064  0.81924700    -0.13300
H541        H  0.23713812  0.29653507  0.83090092     0.12800
H542        H  0.34904978  0.28869077  0.81979467     0.12800
H543        H  0.38929312  0.36335398  0.80865524     0.12800
H544        H  0.27705708  0.37104157  0.81915214     0.12800
C545        C  0.61369467  0.95753779  0.84095165    -0.13300
C546        C  0.60996441  0.95772336  0.82517666     0.08800
C547        C  0.64896670  0.98542212  0.81645468    -0.13300
C548        C  0.69068393  0.01386639  0.82343508    -0.13300
C549        C  0.69428106  0.01415868  0.83921300     0.08800
C550        C  0.65564554  0.98508924  0.84790212    -0.13300
H551        H  0.58407545  0.93637002  0.84791333     0.12800
H552        H  0.64695456  0.98645899  0.80429365     0.12800
H553        H  0.72014602  0.03585332  0.81650759     0.12800
H554        H  0.65763535  0.98491805  0.86009091     0.12800
C555        C  0.28750533  0.95074606  0.81299037    -0.13300
C556        C  0.30289709  0.93127543  0.82237641     0.08800
C557        C  0.29951313  0.93395884  0.83811783    -0.13300
C558        C  0.28239041  0.95687885  0.84435383    -0.13300
C559        C  0.26902199  0.97821344  0.83496264     0.08800
C560        C  0.27105893  0.97425253  0.81921887    -0.13300
H561        H  0.28984445  0.94939217  0.80083211     0.12800
H562        H  0.31075119  0.91888177  0.84562843     0.12800
H563        H  0.28126402  0.95930696  0.85651339     0.12800
H564        H  0.26045438  0.98980682  0.81167059     0.12800
C565        C  0.37185804  0.76618968  0.73157019    -0.16400
C566        C  0.39829798  0.76597230  0.72084048    -0.31600
H567        H  0.33581018  0.74041795  0.73140808     0.12600
H568        H  0.43371850  0.79325707  0.71993931     0.13200
C569        C  0.26280118  0.64497487  0.71784297    -0.16400
C570        C  0.25640249  0.62441825  0.73106808    -0.31600
H571        H  0.23946980  0.65278882  0.71412003     0.12600
H572        H  0.27786747  0.61368138  0.73404506     0.13200
C573        C  0.38790011  0.63518502  0.71639083    -0.16400
C574        C  0.36832679  0.61203998  0.72914452    -0.31600
H575        H  0.41859764  0.63965938  0.71221678     0.12600
H576        H  0.33567891  0.60426305  0.73251215     0.13200
C577        C  0.37296294  0.72347712  0.64455155    -0.13300
C578        C  0.34986061  0.68218929  0.63681960     0.08800
C579        C  0.32625477  0.64282899  0.64553519    -0.13300
C580        C  0.32712771  0.64495304  0.66135569    -0.13300
C581        C  0.35170666  0.68625155  0.66908002     0.08800
C582        C  0.37398712  0.72559030  0.66035520    -0.13300
H583        H  0.39164657  0.75451403  0.63826360     0.12800
H584        H  0.30817788  0.61011336  0.64039122     0.12800
H585        H  0.30914353  0.61393826  0.66766219     0.12800
H586        H  0.39282107  0.75833403  0.66546675     0.12800
C587        C  0.08377527  0.07682370  0.92536648    -0.16400
C588        C  0.10819930  0.06038777  0.92243069    -0.31600
H589        H  0.08908561  0.10463767  0.91888126     0.12600
H590        H  0.09992703  0.03029021  0.92820920     0.13200
C591        C  0.95881580  0.93951183  0.91861929    -0.16400
C592        C  0.98419359  0.94690984  0.90629922    -0.31600
H593        H  0.92692943  0.90733376  0.92026540     0.12600
H594        H  0.01784786  0.97762578  0.90549250     0.13200
C595        C  0.96855055  0.08616195  0.91412945    -0.16400
C596        C  0.94664973  0.05659905  0.92534016    -0.31600
H597        H  0.00358205  0.09926611  0.91175292     0.12600
H598        H  0.91313655  0.04657356  0.92874028     0.13200
C599        C  0.01164677  0.98799539  0.97806901    -0.13300
C600        C  0.98682241  0.00326049  0.97196395     0.08800
C601        C  0.96263167  0.01229225  0.98212194    -0.13300
C602        C  0.96446595  0.00758968  0.99770539    -0.13300
C603        C  0.99011311  0.99339183  0.00383938     0.08800
C604        C  0.01351559  0.98332104  0.99370548    -0.13300
H605        H  0.03051396  0.98044387  0.97065930     0.12800
H606        H  0.94219040  0.02327278  0.97837933     0.12800
H607        H  0.94573521  0.01535596  0.00510076     0.12800
H608        H  0.03375734  0.97219395  0.99758378     0.12800
C609        C  0.02035369  0.93106090  0.06465960    -0.16400
C610        C  0.04005440  0.95573191  0.05221708    -0.31600
H611        H  0.98580623  0.91915388  0.06735881     0.12600
H612        H  0.07285343  0.96429840  0.04854221     0.13200
C613        C  0.88829399  0.95185288  0.06108929    -0.16400
C614        C  0.90078786  0.93023582  0.05244785    -0.31600
H615        H  0.90490914  0.98756322  0.05947339     0.12600
H616        H  0.88372695  0.89427044  0.05328657     0.13200
C617        C  0.68250626  0.02021916  0.17270548    -0.13300
C618        C  0.67112166  0.04294281  0.16315684     0.08800
C619        C  0.67932532  0.04384340  0.14758531    -0.13300
C620        C  0.69838896  0.02235043  0.14168493    -0.13300
C621        C  0.70907202  0.99889986  0.15120342     0.08800
C622        C  0.70096849  0.99819828  0.16679026    -0.13300
H623        H  0.67623517  0.01858546  0.18473625     0.12800
H624        H  0.67113482  0.06130687  0.13995433     0.12800
H625        H  0.70392578  0.02347821  0.12962391     0.12800
H626        H  0.70903012  0.98078333  0.17447941     0.12800
C627        C  0.37946798  0.05481014  0.14090774    -0.13300
C628        C  0.38080511  0.05065477  0.15663821     0.08800
C629        C  0.34015968  0.02371297  0.16464104    -0.13300
C630        C  0.29916697  0.99948600  0.15697250    -0.13300
C631        C  0.29789617  0.00260502  0.14120503     0.08800
C632        C  0.33824924  0.03143086  0.13327025    -0.13300
H633        H  0.41037481  0.07559697  0.13449354     0.12800
H634        H  0.34016788  0.01969104  0.17673997     0.12800
H635        H  0.26840831  0.97767790  0.16335702     0.12800
H636        H  0.33808114  0.03422768  0.12111156     0.12800
C637        C  0.02747391  0.07243119  0.05444657    -0.16400
C638        C  0.00750997  0.06919665  0.06770470    -0.31600
H639        H  0.05754098  0.10422754  0.05093725     0.12600
H640        H  0.97541860  0.03856725  0.07058426     0.13200
C641        C  0.92793609  0.28607105  0.15444766    -0.13300
C642        C  0.92669267  0.29281327  0.17002009     0.08800
C643        C  0.94304398  0.27556255  0.18005354    -0.13300
C644        C  0.96188119  0.25341602  0.17452914    -0.13300
C645        C  0.96352025  0.24718670  0.15892451     0.08800
C646        C  0.94574499  0.26314113  0.14897048    -0.13300
H647        H  0.91526804  0.29870945  0.14645800     0.12800
H648        H  0.94266037  0.28051214  0.19210694     0.12800
H649        H  0.97524810  0.24125752  0.18242709     0.12800
H650        H  0.94689543  0.25918577  0.13688521     0.12800
C651        C  0.91406115  0.61458661  0.15266865    -0.13300
C652        C  0.93502397  0.59199542  0.15392565     0.08800
C653        C  0.97913474  0.61233433  0.14846491    -0.13300
C654        C  0.00238346  0.65495320  0.14219933    -0.13300
C655        C  0.98173074  0.67778146  0.14101325     0.08800
C656        C  0.93709359  0.65704222  0.14603817    -0.13300
H657        H  0.87995821  0.59938144  0.15677174     0.12800
H658        H  0.99622513  0.59584356  0.14942002     0.12800
H659        H  0.03665765  0.67011484  0.13828868     0.12800
H660        H  0.92062474  0.67420024  0.14527179     0.12800
C661        C  0.35561497  0.31044122  0.14611659    -0.13300
C662        C  0.36228263  0.30790180  0.16158071     0.08800
C663        C  0.32443691  0.28384595  0.17113062    -0.13300
C664        C  0.28101258  0.26397706  0.16544289    -0.13300
C665        C  0.27437266  0.26710296  0.15003970     0.08800
C666        C  0.31205223  0.28989465  0.14037812    -0.13300
H667        H  0.38405898  0.32841827  0.13844882     0.12800
H668        H  0.32830787  0.28138403  0.18310323     0.12800
H669        H  0.25259865  0.24623804  0.17313554     0.12800
H670        H  0.30797788  0.29297508  0.12846088     0.12800
C671        C  0.68992099  0.62792253  0.15143840    -0.13300
C672        C  0.68344944  0.62132638  0.16710430     0.08800
C673        C  0.69903038  0.65856770  0.17653745    -0.13300
C674        C  0.71898490  0.70131037  0.17033485    -0.13300
C675        C  0.72448580  0.70767166  0.15461340     0.08800
C676        C  0.71046433  0.67059897  0.14527417    -0.13300
H677        H  0.67856338  0.59990701  0.14389074     0.12800
H678        H  0.69425538  0.65443550  0.18864585     0.12800
H679        H  0.72974043  0.72928698  0.17783224     0.12800
H680        H  0.71389055  0.67417815  0.13312900     0.12800
C681        C  0.48124686  0.73926647  0.58194737    -0.16400
C682        C  0.46319466  0.73373760  0.59577027    -0.31600
H683        H  0.51780972  0.76066500  0.58114787     0.12600
H684        H  0.48757558  0.75126736  0.60477279     0.13200
C685        C  0.59797414  0.97353038  0.47619362    -0.13300
C686        C  0.64312300  0.99269730  0.47212382     0.08800
C687        C  0.66087821  0.96717179  0.47351181    -0.13300
C688        C  0.63386579  0.92307172  0.47872430    -0.13300
C689        C  0.58897459  0.90413354  0.48311771     0.08800
C690        C  0.57132881  0.92983331  0.48189887    -0.13300
H691        H  0.58372359  0.99276816  0.47533624     0.12800
H692        H  0.69562974  0.98129045  0.47044737     0.12800
H693        H  0.64842601  0.90413841  0.47966862     0.12800
H694        H  0.53680150  0.91592551  0.48520604     0.12800
C695        C  0.31486442  0.60258601  0.58528759    -0.16400
C696        C  0.33574784  0.60112457  0.57295328    -0.31600
H697        H  0.27998947  0.57562117  0.58761477     0.12600
H698        H  0.37160549  0.62612775  0.57147672     0.13200
C699        C  0.03277910  0.33240077  0.49082156    -0.13300
C700        C  0.05206629  0.37731824  0.49459900     0.08800
C701        C  0.02615486  0.39473142  0.49349443    -0.13300
C702        C  0.98167559  0.36763417  0.48831835    -0.13300
C703        C  0.96224091  0.32248009  0.48460442     0.08800
C704        C  0.98811867  0.30506851  0.48606354    -0.13300
H705        H  0.05235075  0.31843303  0.49158763     0.12800
H706        H  0.04070235  0.42947631  0.49624184     0.12800
H707        H  0.96242925  0.38187683  0.48730965     0.12800
H708        H  0.97428138  0.27060507  0.48313827     0.12800
C709        C  0.40350824  0.38332202  0.48560572    -0.13300
C710        C  0.39957695  0.37120086  0.47030007     0.08800
C711        C  0.38286301  0.38777690  0.46009677    -0.13300
C712        C  0.36805473  0.41378856  0.46526926    -0.13300
C713        C  0.37044311  0.42426491  0.48066416     0.08800
C714        C  0.38929928  0.40972480  0.49071332    -0.13300
H715        H  0.41687447  0.37187252  0.49376654     0.12800
H716        H  0.37956137  0.37931625  0.44822719     0.12800
H717        H  0.35385662  0.42493294  0.45730427     0.12800
H718        H  0.39122280  0.41701506  0.50266431     0.12800
C719        C  0.59389344  0.57599914  0.47323989    -0.13300
C720        C  0.61479746  0.56505516  0.48381638     0.08800
C721        C  0.60733675  0.56755092  0.49928398    -0.13300
C722        C  0.58094111  0.58250221  0.50407900    -0.13300
C723        C  0.56249188  0.59626107  0.49348101     0.08800
C724        C  0.56839806  0.59185283  0.47802056    -0.13300
H725        H  0.59913993  0.57450359  0.46125905     0.12800
H726        H  0.62277020  0.55888919  0.50766712     0.12800
H727        H  0.57700194  0.58550793  0.51606038     0.12800
H728        H  0.55418538  0.60172318  0.46958424     0.12800
C729        C  0.31746300  0.71568035  0.57245515    -0.16400
C730        C  0.33846670  0.73568988  0.58546223    -0.31600
H731        H  0.30930748  0.68265139  0.56975447     0.12600
H732        H  0.34239998  0.76638023  0.58900474     0.13200
C733        C  0.38922765  0.01337717  0.50529139    -0.13300
C734        C  0.34818476  0.99834977  0.51255961     0.08800
C735        C  0.33128637  0.02475385  0.51201647    -0.13300
C736        C  0.35477350  0.06532706  0.50423909    -0.13300
C737        C  0.39495977  0.07962667  0.49650997     0.08800
C738        C  0.41210753  0.05342474  0.49712518    -0.13300
H739        H  0.40272617  0.99337362  0.50545801     0.12800
H740        H  0.29975228  0.01387186  0.51755826     0.12800
H741        H  0.34058265  0.08468275  0.50380479     0.12800
H742        H  0.44303808  0.06384189  0.49123386     0.12800
C743        C  0.00417465  0.68704779  0.51348449    -0.13300
C744        C  0.03394481  0.67455105  0.51081479     0.08800
C745        C  0.02037303  0.63788237  0.50134838    -0.13300
C746        C  0.97844483  0.61524089  0.49419544    -0.13300
C747        C  0.94895857  0.62837513  0.49657086     0.08800
C748        C  0.96203077  0.66403121  0.50653696    -0.13300
H749        H  0.01369288  0.71498305  0.52085215     0.12800
H750        H  0.04280897  0.62771358  0.49905094     0.12800
H751        H  0.96935147  0.58764224  0.48674138     0.12800
H752        H  0.94034407  0.67514128  0.50867424     0.12800
C753        C  0.70532074  0.40324235  0.39204398    -0.16400
C754        C  0.72726238  0.40947202  0.40498591    -0.31600
H755        H  0.69836483  0.42733873  0.38855243     0.12600
H756        H  0.73776696  0.38764259  0.40767434     0.13200
C757        C  0.70598992  0.27370173  0.39066009    -0.16400
C758        C  0.72356484  0.28886112  0.40440282    -0.31600
H759        H  0.70240017  0.24404679  0.38607560     0.12600
H760        H  0.73094658  0.32070170  0.40829378     0.13200
C761        C  0.57916679  0.26341710  0.39215708    -0.16400
C762        C  0.54054565  0.25943065  0.38953920    -0.31600
H763        H  0.58392882  0.25235436  0.40286391     0.12600
H764        H  0.53725724  0.27472768  0.37962871     0.13200
C765        C  0.73997582  0.37427646  0.24808874    -0.16400
C766        C  0.73428517  0.35068987  0.26047853    -0.31600
H767        H  0.71768279  0.38480055  0.24611486     0.12600
H768        H  0.75834513  0.34310247  0.26341510     0.13200
C769        C  0.59306919  0.22856987  0.26191654    -0.16400
C770        C  0.61663902  0.22094695  0.25211425    -0.31600
H771        H  0.55670019  0.20554241  0.26283370     0.12600
H772        H  0.65323815  0.24299734  0.25223443     0.13200
C773        C  0.62090673  0.36990459  0.26128322    -0.16400
C774        C  0.59629379  0.35095799  0.24878464    -0.31600
H775        H  0.63031393  0.40277539  0.26488889     0.12600
H776        H  0.58340341  0.31639614  0.24616772     0.13200
C777        C  0.63935501  0.33939608  0.32016984    -0.13300
C778        C  0.65309638  0.31841659  0.31043154     0.08800
C779        C  0.67063607  0.29633696  0.31699719    -0.13300
C780        C  0.67574091  0.29629023  0.33262335    -0.13300
C781        C  0.66269477  0.31785867  0.34237445     0.08800
C782        C  0.64387855  0.33883168  0.33584551    -0.13300
H783        H  0.62448397  0.35587934  0.31597219     0.12800
H784        H  0.68084406  0.27912963  0.30991325     0.12800
H785        H  0.68902883  0.27834417  0.33675291     0.12800
H786        H  0.63240376  0.35482912  0.34297179     0.12800
loop_ 
_geom_bond_atom_site_label_1 
_geom_bond_atom_site_label_2 
_geom_bond_distance 
_geom_bond_site_symmetry_2 
_ccdc_geom_bond_type 
C1            C2   1.548       .  S
C1            C7   1.553       .  S
C1            C5   1.545       .  S
C1          C778   1.533       .  S
C2            H9   1.086       .  S
C2            C3   1.366       .  D
C3            C4   1.529       .  S
C3          C769   1.481       .  S
C4            C8   1.534       .  S
C4            C6   1.531       .  S
C4           H10   1.111       .  S
C5           H11   1.086       .  S
C5            C6   1.361       .  D
C6          C766   1.474       .  S
C7           H12   1.082       .  S
C7            C8   1.366       .  D
C8          C773   1.484       .  S
C13          C14   1.540       .  S
C13          C19   1.555       .  S
C13          C17   1.547       .  S
C13         C781   1.534       .  S
C14          H21   1.086       .  S
C14          C15   1.364       .  D
C15          C16   1.528       .  S
C15         C761   1.471       .  S
C16          C20   1.530       .  S
C16          C18   1.534       .  S
C16          H22   1.110       .  S
C17          H23   1.086       .  S
C17          C18   1.367       .  D
C18         C753   1.485       .  S
C19          H24   1.080       .  S
C19          C20   1.364       .  D
C20         C757   1.482       .  S
N25          N26   1.321       .  A
N25          C29   1.344       .  A
N25         Cu33   2.068       .  S
N26          C27   1.346       .  A
N26         Cu32   2.072       .  S
C27          C28   1.385       .  A
C27          H30   1.082       .  S
C28          C29   1.384       .  A
C28         C734   1.476       .  S
C29          H31   1.082       .  S
Cu32         N35   2.073       .  S
Cu33         N43   2.069       .  S
Cu34         N36   2.084       .  S
Cu34         N42   2.084       .  S
N35          N36   1.324       .  A
N35          C39   1.345       .  A
N36          C37   1.346       .  A
C37          C38   1.383       .  A
C37          H40   1.082       .  S
C38          C39   1.382       .  A
C38         C729   1.474       .  S
C39          H41   1.082       .  S
N42          N43   1.322       .  A
N42          C46   1.348       .  A
N43          C44   1.342       .  A
C44          C45   1.382       .  A
C44          H47   1.082       .  S
C45          C46   1.387       .  A
C45         C744   1.478       .  S
C46          H48   1.082       .  S
N49          N50   1.320       .  A
N49          C53   1.345       .  A
N49         Cu57   2.074       .  S
N50          C51   1.346       .  A
N50         Cu56   2.077       .  S
C51          C52   1.388       .  A
C51          H54   1.081       .  S
C52          C53   1.388       .  A
C52         C747   1.487       .  S
C53          H55   1.081       .  S
Cu56         N59   2.078       .  S
Cu57         N67   2.075       .  S
Cu58         N60   2.091       .  S
Cu58         N66   2.091       .  S
N59          N60   1.324       .  A
N59          C63   1.344       .  A
N60          C61   1.350       .  A
C61          C62   1.387       .  A
C61          H64   1.081       .  S
C62          C63   1.381       .  A
C62         C754   1.476       .  S
C63          H65   1.083       .  S
N66          N67   1.323       .  A
N66          C70   1.348       .  A
N67          C68   1.345       .  A
C68          C69   1.384       .  A
C68          H71   1.082       .  S
C69          C70   1.388       .  A
C69         C720   1.481       .  S
C70          H72   1.082       .  S
N73          N74   1.320       .  A
N73          C77   1.342       .  A
N73         Cu81   2.063       .  S
N74          C75   1.346       .  A
N74         Cu80   2.071       .  S
C75          C76   1.386       .  A
C75          H78   1.082       .  S
C76          C77   1.383       .  A
C76         C737   1.475       .  S
C77          H79   1.082       .  S
Cu80         N83   2.072       .  S
Cu81         N91   2.063       .  S
Cu82         N84   2.071       .  S
Cu82         N90   2.071       .  S
N83          N84   1.323       .  A
N83          C87   1.342       .  A
N84          C85   1.345       .  A
C85          C86   1.380       .  A
C85          H88   1.082       .  S
C86          C87   1.384       .  A
C86         C762   1.472       .  S
C87          H89   1.082       .  S
N90          N91   1.320       .  A
N90          C94   1.346       .  A
N91          C92   1.340       .  A
C92          C93   1.385       .  A
C92          H95   1.081       .  S
C93          C94   1.388       .  A
C93         C710   1.482       .  S
C94          H96   1.081       .  S
N97          N98   1.324       .  A
N97         C101   1.341       .  A
N97        Cu105   2.063       .  S
N98          C99   1.349       .  A
N98        Cu104   2.092       .  S
C99         C100   1.386       .  A
C99         H102   1.082       .  S
C100        C101   1.378       .  A
C100        C700   1.471       .  S
C101        H103   1.082       .  S
Cu104       N107   2.093       .  S
Cu105       N115   2.062       .  S
Cu106       N108   2.063       .  S
Cu106       N114   2.062       .  S
N107        N108   1.323       .  A
N107        C111   1.350       .  A
N108        C109   1.341       .  A
C109        C110   1.377       .  A
C109        H112   1.082       .  S
C110        C111   1.388       .  A
C110        C696   1.473       .  S
C111        H113   1.082       .  S
N114        N115   1.319       .  A
N114        C118   1.343       .  A
N115        C116   1.344       .  A
C116        C117   1.384       .  A
C116        H119   1.082       .  S
C117        C118   1.385       .  A
C117        C713   1.474       .  S
C118        H120   1.082       .  S
N121        N122   1.319       .  A
N121        C125   1.344       .  A
N121       Cu129   2.074       .  S
N122        C123   1.344       .  A
N122       Cu128   2.058       .  S
C123        C124   1.384       .  A
C123        H126   1.082       .  S
C124        C125   1.387       .  A
C124        C703   1.479       .  S
C125        H127   1.082       .  S
Cu128       N131   2.058       .  S
Cu129       N139   2.074       .  S
Cu130       N132   2.094       .  S
Cu130       N138   2.095       .  S
N131        N132   1.323       .  A
N131        C135   1.340       .  A
N132        C133   1.350       .  A
C133        C134   1.388       .  A
C133        H136   1.082       .  S
C134        C135   1.375       .  A
C134        C758   1.470       .  S
C135        H137   1.082       .  S
N138        N139   1.324       .  A
N138        C142   1.350       .  A
N139        C140   1.344       .  A
C140        C141   1.381       .  A
C140        H143   1.082       .  S
C141        C142   1.387       .  A
C141        C686   1.479   1_545  S
C142        H144   1.082       .  S
N145        N146   1.321       .  A
N145        C149   1.345       .  A
N145       Cu153   2.070       .  S
N146        C147   1.347       .  A
N146       Cu152   2.081       .  S
C147        C148   1.387       .  A
C147        H150   1.082       .  S
C148        C149   1.384       .  A
C148        C689   1.480       .  S
C149        H151   1.082       .  S
Cu152       N155   2.081       .  S
Cu153       N163   2.069       .  S
Cu154       N156   2.090       .  S
Cu154       N162   2.090       .  S
N155        N156   1.322       .  A
N155        C159   1.345       .  A
N156        C157   1.345       .  A
C157        C158   1.387       .  A
C157        H160   1.082       .  S
C158        C159   1.385       .  A
C158        C681   1.468       .  S
C159        H161   1.082       .  S
N162        N163   1.322       .  A
N162        C166   1.350       .  A
N163        C164   1.342       .  A
C164        C165   1.384       .  A
C164        H167   1.082       .  S
C165        C166   1.391       .  A
C165        C723   1.484       .  S
C166        H168   1.082       .  S
N169        N170   1.319       .  A
N169        C173   1.346       .  A
N169       Cu177   2.069       .  S
N170        C171   1.344       .  A
N170       Cu176   2.068       .  S
C171        C172   1.387       .  A
C171        H174   1.081       .  S
C172        C173   1.388       .  A
C172        C662   1.483       .  S
C173        H175   1.082       .  S
Cu176       N179   2.069       .  S
Cu177       N187   2.070       .  S
Cu178       N180   2.094       .  S
Cu178       N186   2.095       .  S
N179        N180   1.323       .  A
N179        C183   1.341       .  A
N180        C181   1.351       .  A
C181        C182   1.389       .  A
C181        H184   1.082       .  S
C182        C183   1.378       .  A
C182        C774   1.474       .  S
C183        H185   1.082       .  S
N186        N187   1.324       .  A
N186        C190   1.350       .  A
N187        C188   1.341       .  A
C188        C189   1.382       .  A
C188        H191   1.082       .  S
C189        C190   1.389       .  A
C189        C672   1.481       .  S
C190        H192   1.082       .  S
N193        N194   1.319       .  A
N193        C197   1.341       .  A
N193       Cu201   2.060       .  S
N194        C195   1.345       .  A
N194       Cu200   2.058       .  S
C195        C196   1.384       .  A
C195        H198   1.082       .  S
C196        C197   1.383       .  A
C196        C652   1.473       .  S
C197        H199   1.082       .  S
Cu200       N203   2.059       .  S
Cu201       N211   2.061       .  S
Cu202       N204   2.086       .  S
Cu202       N210   2.086       .  S
N203        N204   1.324       .  A
N203        C207   1.340       .  A
N204        C205   1.348       .  A
C205        C206   1.386       .  A
C205        H208   1.082       .  S
C206        C207   1.375       .  A
C206        C765   1.466       .  S
C207        H209   1.081       .  S
N210        N211   1.322       .  A
N210        C214   1.349       .  A
N211        C212   1.341       .  A
C212        C213   1.381       .  A
C212        H215   1.082       .  S
C213        C214   1.388       .  A
C213        C642   1.478       .  S
C214        H216   1.082       .  S
N217        N218   1.323       .  A
N217        C221   1.344       .  A
N217       Cu225   2.077       .  S
N218        C219   1.347       .  A
N218       Cu224   2.082       .  S
C219        C220   1.386       .  A
C219        H222   1.082       .  S
C220        C221   1.385       .  A
C220        C665   1.481       .  S
C221        H223   1.082       .  S
Cu224       N227   2.081       .  S
Cu225       N235   2.075       .  S
Cu226       N228   2.070       .  S
Cu226       N234   2.070       .  S
N227        N228   1.322       .  A
N227        C231   1.348       .  A
N228        C229   1.344       .  A
C229        C230   1.380       .  A
C229        H232   1.082   1_455  S
C230        C231   1.385       .  A
C230        C638   1.472       .  S
C231        H233   1.082       .  S
N234        N235   1.321       .  A
N234        C238   1.343   1_455  A
N235        C236   1.347       .  A
C236        C237   1.386   1_455  A
C236        H239   1.082       .  S
C237        C238   1.385       .  A
C237        C645   1.478       .  S
C238        H240   1.082       .  S
N241        N242   1.323       .  A
N241        C245   1.344       .  A
N241       Cu249   2.071       .  S
N242        C243   1.347       .  A
N242       Cu248   2.088       .  S
C243        C244   1.388       .  A
C243        H246   1.082       .  S
C244        C245   1.383       .  A
C244        C628   1.480       .  S
C245        H247   1.082       .  S
Cu248       N251   2.087       .  S
Cu249       N259   2.071       .  S
Cu250       N252   2.083       .  S
Cu250       N258   2.082       .  S
N251        N252   1.323       .  A
N251        C255   1.349       .  A
N252        C253   1.345       .  A
C253        C254   1.383       .  A
C253        H256   1.082       .  S
C254        C255   1.386       .  A
C254        C770   1.477       .  S
C255        H257   1.083       .  S
N258        N259   1.321       .  A
N258        C262   1.346       .  A
N259        C260   1.345       .  A
C260        C261   1.386       .  A
C260        H263   1.082       .  S
C261        C262   1.388       .  A
C261        C618   1.483       .  S
C262        H264   1.082       .  S
N265        N266   1.323       .  A
N265        C269   1.346       .  A
N265       Cu273   2.078       .  S
N266        C267   1.345       .  A
N266       Cu272   2.083       .  S
C267        C268   1.387       .  A
C267        H270   1.082       .  S
C268        C269   1.386       .  A
C268        C675   1.484       .  S
C269        H271   1.082       .  S
Cu272       N275   2.082       .  S
Cu273       N283   2.078       .  S
Cu274       N276   2.074       .  S
Cu274       N282   2.074       .  S
N275        N276   1.322       .  A
N275        C279   1.349       .  A
N276        C277   1.343       .  A
C277        C278   1.381       .  A
C277        H280   1.082       .  S
C278        C279   1.387       .  A
C278        C613   1.476       .  S
C279        H281   1.082       .  S
N282        N283   1.321       .  A
N282        C286   1.345       .  A
N283        C284   1.345       .  A
C284        C285   1.389       .  A
C284        H287   1.081       .  S
C285        C286   1.388       .  A
C285        C621   1.487       .  S
C286        H288   1.081   1_565  S
N289        N290   1.322       .  A
N289        C293   1.340       .  A
N289       Cu297   2.052       .  S
N290        C291   1.351       .  A
N290       Cu296   2.096       .  S
C291        C292   1.390       .  A
C291        H294   1.082   1_565  S
C292        C293   1.379       .  A
C292        C631   1.478   1_565  S
C293        H295   1.082       .  S
Cu296       N299   2.097       .  S
Cu297       N307   2.051       .  S
Cu298       N300   2.067       .  S
Cu298       N306   2.064       .  S
N299        N300   1.325       .  A
N299        C303   1.350       .  A
N300        C301   1.341       .  A
C301        C302   1.376       .  A
C301        H304   1.082   1_455  S
C302        C303   1.387       .  A
C302        C609   1.471       .  S
C303        H305   1.082       .  S
N306        N307   1.319       .  A
N306        C310   1.347   1_455  A
N307        C308   1.339       .  A
C308        C309   1.381       .  A
C308        H311   1.082       .  S
C309        C310   1.386   1_455  A
C309        C655   1.471   1_455  S
C310        H312   1.082       .  S
C313        C314   1.548       .  S
C313        C319   1.551   1_655  S
C313        C317   1.546   1_665  S
C313        C603   1.535       .  S
C314        H321   1.086       .  S
C314        C315   1.363       .  D
C315        C316   1.526       .  S
C315        C614   1.476       .  S
C316        C320   1.535   1_655  S
C316        C318   1.532   1_665  S
C316        H322   1.110       .  S
C317        H323   1.086       .  S
C317        C318   1.365       .  D
C318        C637   1.483       .  S
C319        H324   1.082       .  S
C319        C320   1.367       .  D
C320        C610   1.481       .  S
C325        C326   1.547   1_545  S
C325        C331   1.552       .  S
C325        C329   1.548   1_655  S
C325        C600   1.538       .  S
C326        H333   1.086       .  S
C326        C327   1.369       .  D
C327        C328   1.535   1_565  S
C327        C591   1.484       .  S
C328        C332   1.530       .  S
C328        C330   1.522   1_655  S
C328        H334   1.111       .  S
C329        H335   1.086       .  S
C329        C330   1.363       .  D
C330        C587   1.470       .  S
C331        H336   1.081       .  S
C331        C332   1.363       .  D
C332        C596   1.479       .  S
C337        C338   1.550       .  S
C337        C343   1.542       .  S
C337        C341   1.532       .  S
C337        C578   1.536       .  S
C338        H345   1.083       .  S
C338        C339   1.369       .  D
C339        C340   1.540       .  S
C339        C695   1.482       .  S
C340        C344   1.537       .  S
C340        C342   1.541       .  S
C340        H346   1.106       .  S
C341        H347   1.087       .  S
C341        C342   1.363       .  D
C342        C682   1.490       .  S
C343        H348   1.086       .  S
C343        C344   1.367       .  D
C344        C730   1.479       .  S
C349        C350   1.545       .  S
C349        C355   1.545       .  S
C349        C353   1.555       .  S
C349        C581   1.537       .  S
C350        H357   1.086       .  S
C350        C351   1.364       .  D
C351        C352   1.532       .  S
C351        C569   1.481       .  S
C352        C356   1.534       .  S
C352        C354   1.531       .  S
C352        H358   1.110       .  S
C353        H359   1.082       .  S
C353        C354   1.368       .  D
C354        C566   1.481       .  S
C355        H360   1.086       .  S
C355        C356   1.365       .  D
C356        C573   1.485       .  S
N361        N362   1.322       .  A
N361        C365   1.342       .  A
N361       Cu369   2.060       .  S
N362        C363   1.347       .  A
N362       Cu368   2.084       .  S
C363        C364   1.388       .  A
C363        H366   1.082       .  S
C364        C365   1.381       .  A
C364        C546   1.477       .  S
C365        H367   1.082       .  S
Cu368       N371   2.085       .  S
Cu369       N379   2.060       .  S
Cu370       N372   2.087       .  S
Cu370       N378   2.086       .  S
N371        N372   1.325       .  A
N371        C375   1.349       .  A
N372        C373   1.345       .  A
C373        C374   1.382       .  A
C373        H376   1.082       .  S
C374        C375   1.385       .  A
C374        C565   1.475       .  S
C375        H377   1.082       .  S
N378        N379   1.320       .  A
N378        C382   1.348       .  A
N379        C380   1.342       .  A
C380        C381   1.383       .  A
C380        H383   1.082       .  S
C381        C382   1.390       .  A
C381        C556   1.481       .  S
C382        H384   1.082       .  S
N385        N386   1.321       .  A
N385        C389   1.343       .  A
N385       Cu393   2.065       .  S
N386        C387   1.347       .  A
N386       Cu392   2.075       .  S
C387        C388   1.386       .  A
C387        H390   1.082       .  S
C388        C389   1.383       .  A
C388        C536   1.477       .  S
C389        H391   1.082       .  S
Cu392       N395   2.076       .  S
Cu393       N403   2.065       .  S
Cu394       N396   2.082       .  S
Cu394       N402   2.082       .  S
N395        N396   1.324       .  A
N395        C399   1.344       .  A
N396        C397   1.346       .  A
C397        C398   1.383       .  A
C397        H400   1.082       .  S
C398        C399   1.386       .  A
C398        C588   1.478       .  S
C399        H401   1.081       .  S
N402        N403   1.321       .  A
N402        C406   1.348       .  A
N403        C404   1.342       .  A
C404        C405   1.384       .  A
C404        H407   1.082       .  S
C405        C406   1.389       .  A
C405        C559   1.482   1_545  S
C406        H408   1.082   1_545  S
N409        N410   1.319       .  A
N409        C413   1.344       .  A
N409       Cu417   2.067       .  S
N410        C411   1.344       .  A
N410       Cu416   2.062       .  S
C411        C412   1.383       .  A
C411        H414   1.082       .  S
C412        C413   1.384       .  A
C412        C516   1.472       .  S
C413        H415   1.082       .  S
Cu416       N419   2.064       .  S
Cu417       N427   2.068       .  S
Cu418       N420   2.094       .  S
Cu418       N426   2.094       .  S
N419        N420   1.324       .  A
N419        C423   1.341       .  A
N420        C421   1.350       .  A
C421        C422   1.388       .  A
C421        H424   1.082       .  S
C422        C423   1.377       .  A
C422        C570   1.471       .  S
C423        H425   1.082       .  S
N426        N427   1.323       .  A
N426        C430   1.351       .  A
N427        C428   1.341       .  A
C428        C429   1.382       .  A
C428        H431   1.082       .  S
C429        C430   1.390       .  A
C429        C526   1.481       .  S
C430        H432   1.082       .  S
N433        N434   1.323       .  A
N433        C437   1.345       .  A
N433       Cu441   2.076       .  S
N434        C435   1.347       .  A
N434       Cu440   2.086       .  S
C435        C436   1.388       .  A
C435        H438   1.082       .  S
C436        C437   1.384       .  A
C436        C506   1.481       .  S
C437        H439   1.082       .  S
Cu440       N443   2.086       .  S
Cu441       N451   2.076       .  S
Cu442       N444   2.081       .  S
Cu442       N450   2.081   1_655  S
N443        N444   1.323       .  A
N443        C447   1.349       .  A
N444        C445   1.345       .  A
C445        C446   1.382       .  A
C445        H448   1.082   1_655  S
C446        C447   1.386       .  A
C446        C592   1.476       .  S
C447        H449   1.082       .  S
N450        N451   1.321   1_455  A
N450        C454   1.346       .  A
N451        C452   1.346       .  A
C452        C453   1.387   1_655  A
C452        H455   1.082       .  S
C453        C454   1.389       .  A
C453        C529   1.486       .  S
C454        H456   1.082       .  S
N457        N458   1.322       .  A
N457        C461   1.343       .  A
N457       Cu465   2.064       .  S
N458        C459   1.347       .  A
N458       Cu464   2.081       .  S
C459        C460   1.386       .  A
C459        H462   1.082       .  S
C460        C461   1.381       .  A
C460        C549   1.475       .  S
C461        H463   1.082       .  S
Cu464       N467   2.081       .  S
Cu465       N475   2.064       .  S
Cu466       N468   2.074       .  S
Cu466       N474   2.073       .  S
N467        N468   1.324       .  A
N467        C471   1.347       .  A
N468        C469   1.344       .  A
C469        C470   1.380       .  A
C469        H472   1.082   1_655  S
C470        C471   1.384       .  A
C470        C595   1.473       .  S
C471        H473   1.082       .  S
N474        N475   1.321       .  A
N474        C478   1.346       .  A
N475        C476   1.343       .  A
C476        C477   1.384       .  A
C476        H479   1.082       .  S
C477        C478   1.386       .  A
C477        C519   1.477   1_655  S
C478        H480   1.082   1_655  S
N481        N482   1.321       .  A
N481        C485   1.341       .  A
N481       Cu489   2.059       .  S
N482        C483   1.350       .  A
N482       Cu488   2.089       .  S
C483        C484   1.390       .  A
C483        H486   1.082       .  S
C484        C485   1.381       .  A
C484        C509   1.480       .  S
C485        H487   1.082       .  S
Cu488       N491   2.090       .  S
Cu489       N499   2.059       .  S
Cu490       N492   2.086       .  S
Cu490       N498   2.084       .  S
N491        N492   1.325       .  A
N491        C495   1.348       .  A
N492        C493   1.345       .  A
C493        C494   1.382       .  A
C493        H496   1.082       .  S
C494        C495   1.385       .  A
C494        C574   1.477       .  S
C495        H497   1.082       .  S
N498        N499   1.321       .  A
N498        C502   1.348       .  A
N499        C500   1.342       .  A
C500        C501   1.381       .  A
C500        H503   1.082       .  S
C501        C502   1.387       .  A
C501        C539   1.474       .  S
C502        H504   1.082       .  S
C505        C506   1.403       .  A
C505        C510   1.397       .  A
C505        H511   1.083       .  S
C506        C507   1.407       .  A
C507        C508   1.402       .  A
C507        H512   1.083       .  S
C508        C509   1.404       .  A
C508        H513   1.083       .  S
C509        C510   1.405       .  A
C510        H514   1.083       .  S
C515        C516   1.403       .  A
C515        C520   1.399       .  A
C515        H521   1.083       .  S
C516        C517   1.402       .  A
C517        C518   1.397   1_455  A
C517        H522   1.083   1_455  S
C518        C519   1.405   1_655  A
C518        H523   1.083       .  S
C519        C520   1.405       .  A
C520        H524   1.083       .  S
C525        C526   1.404       .  A
C525        C530   1.403       .  A
C525        H531   1.083       .  S
C526        C527   1.404       .  A
C527        C528   1.396       .  A
C527        H532   1.083       .  S
C528        C529   1.404       .  A
C528        H533   1.082       .  S
C529        C530   1.408       .  A
C530        H534   1.083       .  S
C535        C536   1.405       .  A
C535        C540   1.401       .  A
C535        H541   1.083       .  S
C536        C537   1.404       .  A
C537        C538   1.396       .  A
C537        H542   1.083       .  S
C538        C539   1.403       .  A
C538        H543   1.083       .  S
C539        C540   1.404       .  A
C540        H544   1.083       .  S
C545        C546   1.406       .  A
C545        C550   1.398       .  A
C545        H551   1.083       .  S
C546        C547   1.403       .  A
C547        C548   1.398   1_565  A
C547        H552   1.083       .  S
C548        C549   1.404       .  A
C548        H553   1.083       .  S
C549        C550   1.402   1_545  A
C550        H554   1.083       .  S
C555        C556   1.403       .  A
C555        C560   1.398       .  A
C555        H561   1.083       .  S
C556        C557   1.406       .  A
C557        C558   1.399       .  A
C557        H562   1.083       .  S
C558        C559   1.404       .  A
C558        H563   1.082       .  S
C559        C560   1.407       .  A
C560        H564   1.082       .  S
C565        H567   1.087       .  S
C565        C566   1.344       .  D
C566        H568   1.086       .  S
C569        H571   1.086       .  S
C569        C570   1.340       .  D
C570        H572   1.083       .  S
C573        H575   1.086       .  S
C573        C574   1.344       .  D
C574        H576   1.083       .  S
C577        C578   1.410       .  A
C577        C582   1.401       .  A
C577        H583   1.083       .  S
C578        C579   1.409       .  A
C579        C580   1.403       .  A
C579        H584   1.078       .  S
C580        C581   1.410       .  A
C580        H585   1.083       .  S
C581        C582   1.408       .  A
C582        H586   1.077       .  S
C587        H589   1.084       .  S
C587        C588   1.341       .  D
C588        H590   1.087       .  S
C591        H593   1.086       .  S
C591        C592   1.345       .  D
C592        H594   1.087   1_655  S
C595        H597   1.087   1_655  S
C595        C596   1.341       .  D
C596        H598   1.086       .  S
C599        C600   1.409   1_465  A
C599        C604   1.404       .  A
C599        H605   1.083       .  S
C600        C601   1.411       .  A
C601        C602   1.399       .  A
C601        H606   1.076       .  S
C602        C603   1.407   1_546  A
C602        H607   1.083   1_556  S
C603        C604   1.410   1_654  A
C604        H608   1.077       .  S
C609        H611   1.087   1_455  S
C609        C610   1.341       .  D
C610        H612   1.086       .  S
C613        H615   1.086       .  S
C613        C614   1.341       .  D
C614        H616   1.085       .  S
C617        C618   1.404       .  A
C617        C622   1.399   1_545  A
C617        H623   1.082       .  S
C618        C619   1.405       .  A
C619        C620   1.400       .  A
C619        H624   1.083       .  S
C620        C621   1.407   1_545  A
C620        H625   1.082       .  S
C621        C622   1.406       .  A
C622        H626   1.082       .  S
C627        C628   1.407       .  A
C627        C632   1.401       .  A
C627        H633   1.083       .  S
C628        C629   1.403       .  A
C629        C630   1.397   1_545  A
C629        H634   1.083       .  S
C630        C631   1.405   1_565  A
C630        H635   1.083       .  S
C631        C632   1.402       .  A
C632        H636   1.083       .  S
C637        H639   1.086       .  S
C637        C638   1.343       .  D
C638        H640   1.084   1_455  S
C641        C642   1.404       .  A
C641        C646   1.395       .  A
C641        H647   1.083       .  S
C642        C643   1.405       .  A
C643        C644   1.402       .  A
C643        H648   1.083       .  S
C644        C645   1.405       .  A
C644        H649   1.083       .  S
C645        C646   1.403       .  A
C646        H650   1.083       .  S
C651        C652   1.405       .  A
C651        C656   1.400       .  A
C651        H657   1.083       .  S
C652        C653   1.402       .  A
C653        C654   1.391   1_655  A
C653        H658   1.083       .  S
C654        C655   1.402   1_455  A
C654        H659   1.083       .  S
C655        C656   1.404       .  A
C656        H660   1.083       .  S
C661        C662   1.406       .  A
C661        C666   1.400       .  A
C661        H667   1.082       .  S
C662        C663   1.405       .  A
C663        C664   1.397       .  A
C663        H668   1.082       .  S
C664        C665   1.404       .  A
C664        H669   1.083       .  S
C665        C666   1.405       .  A
C666        H670   1.083       .  S
C671        C672   1.405       .  A
C671        C676   1.396       .  A
C671        H677   1.083       .  S
C672        C673   1.405       .  A
C673        C674   1.402       .  A
C673        H678   1.083       .  S
C674        C675   1.407       .  A
C674        H679   1.083       .  S
C675        C676   1.404       .  A
C676        H680   1.082       .  S
C681        H683   1.087       .  S
C681        C682   1.343       .  D
C682        H684   1.088       .  S
C685        C686   1.404       .  A
C685        C690   1.402       .  A
C685        H691   1.083       .  S
C686        C687   1.404       .  A
C687        C688   1.399       .  A
C687        H692   1.083       .  S
C688        C689   1.405       .  A
C688        H693   1.083       .  S
C689        C690   1.405       .  A
C690        H694   1.083       .  S
C695        H697   1.086       .  S
C695        C696   1.340       .  D
C696        H698   1.085       .  S
C699        C700   1.402       .  A
C699        C704   1.395   1_455  A
C699        H705   1.083       .  S
C700        C701   1.402       .  A
C701        C702   1.401   1_455  A
C701        H706   1.083       .  S
C702        C703   1.407       .  A
C702        H707   1.083       .  S
C703        C704   1.404       .  A
C704        H708   1.082       .  S
C709        C710   1.406       .  A
C709        C714   1.394       .  A
C709        H715   1.081       .  S
C710        C711   1.406       .  A
C711        C712   1.399       .  A
C711        H716   1.082       .  S
C712        C713   1.403       .  A
C712        H717   1.083       .  S
C713        C714   1.402       .  A
C714        H718   1.083       .  S
C719        C720   1.403       .  A
C719        C724   1.398       .  A
C719        H725   1.083       .  S
C720        C721   1.406       .  A
C721        C722   1.402       .  A
C721        H726   1.083       .  S
C722        C723   1.405       .  A
C722        H727   1.083       .  S
C723        C724   1.406       .  A
C724        H728   1.083       .  S
C729        H731   1.087       .  S
C729        C730   1.344       .  D
C730        H732   1.086       .  S
C733        C734   1.405   1_545  A
C733        C738   1.400       .  A
C733        H739   1.083   1_545  S
C734        C735   1.403   1_565  A
C735        C736   1.396       .  A
C735        H740   1.083       .  S
C736        C737   1.404       .  A
C736        H741   1.083       .  S
C737        C738   1.404       .  A
C738        H742   1.083       .  S
C743        C744   1.404       .  A
C743        C748   1.398   1_455  A
C743        H749   1.083       .  S
C744        C745   1.403       .  A
C745        C746   1.400   1_455  A
C745        H750   1.083       .  S
C746        C747   1.408       .  A
C746        H751   1.082       .  S
C747        C748   1.406       .  A
C748        H752   1.082       .  S
C753        H755   1.088       .  S
C753        C754   1.342       .  D
C754        H756   1.086       .  S
C757        H759   1.087       .  S
C757        C758   1.340       .  D
C758        H760   1.084       .  S
C761        H763   1.086       .  S
C761        C762   1.340       .  D
C762        H764   1.086       .  S
C765        H767   1.087       .  S
C765        C766   1.338       .  D
C766        H768   1.085       .  S
C769        H771   1.085       .  S
C769        C770   1.345       .  D
C770        H772   1.087       .  S
C773        H775   1.086       .  S
C773        C774   1.341       .  D
C774        H776   1.087       .  S
C777        C778   1.410       .  A
C777        C782   1.401       .  A
C777        H783   1.077       .  S
C778        C779   1.407       .  A
C779        C780   1.398       .  A
C779        H784   1.084       .  S
C780        C781   1.410       .  A
C780        H785   1.074       .  S
C781        C782   1.408       .  A
C782        H786   1.083       .  S
