geometry optimzed in LAMMPS
_audit_creation_date              2020-11-30 
_audit_creation_method            'lammps2cif' 
_symmetry_space_group_name_H-M    'P1' 
_symmetry_Int_Tables_number       1 
_symmetry_cell_setting            triclinic 
loop_ 
_symmetry_equiv_pos_as_xyz 
  x,y,z 
_cell_length_a                    43.76542753 
_cell_length_b                    44.586194286293505 
_cell_length_c                    46.24076000467542 
_cell_angle_alpha                 89.66909796761304 
_cell_angle_beta                  90.1127424978773 
_cell_angle_gamma                 89.74701732360948 
loop_ 
_atom_site_label 
_atom_site_type_symbol 
_atom_site_fract_x 
_atom_site_fract_y 
_atom_site_fract_z 
_atom_site_charge 
O1          O  0.46989391  0.52449035  0.02939050    -0.72700
O2          O  0.53403249  0.46084877  0.01427455    -0.73700
O3          O  0.53463543  0.52411217  0.01786574    -0.62300
O4          O  0.46915066  0.46212934  0.02687889    -0.70700
O5          O  0.45731504  0.46519243  0.98029775    -0.70300
O6          O  0.52552211  0.52610030  0.97070824    -0.61500
O7          O  0.52194259  0.46351768  0.96777008    -0.74000
O8          O  0.46042144  0.52818696  0.98238815    -0.72800
Cu9        Cu  0.50230457  0.49274670  0.02369996     1.04600
Cu10       Cu  0.49099894  0.49581891  0.97366086     1.04300
C11         C  0.45422107  0.53545361  0.00839833     0.93500
C12         C  0.53881795  0.45307318  0.98805525     0.92600
C13         C  0.54133558  0.53404549  0.99272083     0.84800
C14         C  0.45166130  0.45530440  0.00577339     0.91000
O15         O  0.46129699  0.01418376  0.47462114    -0.72700
O16         O  0.52812049  0.00723581  0.53533990    -0.73700
O17         O  0.52765755  0.01478842  0.47443743    -0.62300
O18         O  0.46222758  0.00721097  0.53534433    -0.70700
O19         O  0.46381960  0.95775747  0.53118551    -0.70300
O20         O  0.52801829  0.96554893  0.46838866    -0.61500
O21         O  0.52948000  0.95801146  0.52907345    -0.74000
O22         O  0.46210743  0.96466037  0.47080961    -0.72800
Cu23       Cu  0.49486451  0.01258983  0.50506158     1.04600
Cu24       Cu  0.49589666  0.95984093  0.49962853     1.04300
C25         C  0.45012331  0.98999875  0.46429975     0.93500
C26         C  0.53980566  0.98152137  0.54125800     0.92600
C27         C  0.53883240  0.99147260  0.46230784     0.84800
C28         C  0.45214922  0.98133952  0.54247626     0.91000
O29         O  0.02709657  0.53943326  0.46717818    -0.72700
O30         O  0.03076234  0.47320179  0.52578428    -0.73700
O31         O  0.02509409  0.47486571  0.46518744    -0.62300
O32         O  0.03243975  0.53810542  0.52738584    -0.70700
O33         O  0.98210822  0.54021512  0.53179926    -0.70300
O34         O  0.97476245  0.47600059  0.46999408    -0.61500
O35         O  0.98050285  0.47461849  0.53109649    -0.74000
O36         O  0.97665589  0.54181120  0.47042489    -0.72800
Cu37       Cu  0.03044549  0.50633890  0.49626983     1.04600
Cu38       Cu  0.97667323  0.50820611  0.50095130     1.04300
C39         C  0.00183655  0.55209401  0.46036973     0.93500
C40         C  0.00642659  0.46250683  0.53697366     0.92600
C41         C  0.99876931  0.46451621  0.45862028     0.84800
C42         C  0.00859723  0.55014673  0.53848697     0.91000
N43         N  0.27170547  0.29757151  0.05498740    -0.03200
C44         C  0.29069690  0.31822492  0.06678776    -0.00600
C45         C  0.30818737  0.30506341  0.08848053    -0.23500
C46         C  0.30018306  0.27541933  0.08985143    -0.23700
C47         C  0.27784102  0.27147272  0.06926017    -0.00700
H48         H  0.32705162  0.31517958  0.09997537     0.13000
H49         H  0.31121997  0.25814381  0.10272634     0.13100
N50         N  0.28732160  0.71119330  0.04694011    -0.03200
C51         C  0.30675229  0.69081834  0.05919846    -0.00600
C52         C  0.32591979  0.70477751  0.07877076    -0.23500
C53         C  0.31848390  0.73458283  0.07851738    -0.23700
C54         C  0.29479204  0.73794399  0.05909642    -0.00700
H55         H  0.34497368  0.69473473  0.09029442     0.13000
H56         H  0.33021712  0.75222076  0.09000331     0.13100
N57         N  0.27848163  0.97971081  0.71350950    -0.03200
C58         C  0.30259308  0.96652717  0.69975432    -0.00600
C59         C  0.32362754  0.95586722  0.71978000    -0.23500
C60         C  0.31248638  0.96242173  0.74656630    -0.23700
C61         C  0.28493189  0.97676129  0.74222762    -0.00700
H62         H  0.34556341  0.94561012  0.71528180     0.13000
H63         H  0.32352832  0.95776253  0.76708224     0.13100
O64         O  0.21027729  0.05080120  0.00334312    -0.72700
O65         O  0.21753840  0.96031962  0.00544805    -0.73700
O66         O  0.21768612  0.00664069  0.04697972    -0.62300
O67         O  0.20964069  0.00423030  0.95999445    -0.70700
O68         O  0.26006516  0.00831922  0.95670991    -0.70300
O69         O  0.26791197  0.01129029  0.04229327    -0.61500
O70         O  0.26775134  0.96509179  0.00112343    -0.74000
O71         O  0.26061446  0.05358498  0.99810448    -0.72800
Cu72       Cu  0.21185982  0.00534056  0.00388556     1.04600
Cu73       Cu  0.26568846  0.00959705  0.99927753     1.04300
C74         C  0.23474682  0.06630970  0.00142236     0.93500
C75         C  0.24426038  0.94860533  0.00459673     0.92600
C76         C  0.24419118  0.00957241  0.05823534     0.84800
C77         C  0.23387803  0.00641332  0.94471355     0.91000
N78         N  0.28258392  0.98345955  0.29132400    -0.03200
C79         C  0.30430129  0.97346031  0.31024964    -0.00600
C80         C  0.32899324  0.96142039  0.29574529    -0.23500
C81         C  0.32291393  0.96427761  0.26693703    -0.23700
C82         C  0.29459208  0.97781773  0.26465482    -0.00700
H83         H  0.35018793  0.95342446  0.30519948     0.13000
H84         H  0.33810014  0.95832384  0.24941118     0.13100
N85         N  0.71512659  0.28942839  0.93802728    -0.03200
C86         C  0.69387943  0.30706767  0.92486449    -0.00600
C87         C  0.67731304  0.29034210  0.90515737    -0.23500
C88         C  0.68845511  0.26154873  0.90649714    -0.23700
C89         C  0.71168690  0.26163944  0.92664609    -0.00700
H90         H  0.65724659  0.29753678  0.89323603     0.13000
H91         H  0.67896518  0.24217528  0.89578355     0.13100
N92         N  0.02577116  0.28423213  0.69999251    -0.03200
C93         C  0.04106016  0.30280546  0.68135525    -0.00600
C94         C  0.06376314  0.31820269  0.69575413    -0.23500
C95         C  0.06212272  0.30998700  0.72415411    -0.23700
C96         C  0.03864468  0.28961715  0.72647464    -0.00700
H97         H  0.07786728  0.33598035  0.68707032     0.13000
H98         H  0.07470915  0.32002189  0.74177337     0.13100
O99         O  0.03797206  0.32193661  0.00069176    -0.72700
O100        O  0.94772299  0.32366550  0.98885206    -0.73700
O101        O  0.98727236  0.32316174  0.03861951    -0.62300
O102        O  0.99846342  0.32059043  0.95092684    -0.70700
O103        O  0.99837833  0.27092708  0.95327873    -0.70300
O104        O  0.98570608  0.27345045  0.03933424    -0.61500
O105        O  0.94627006  0.27393046  0.99050996    -0.74000
O106        O  0.03812831  0.27220013  0.00231507    -0.72800
Cu107      Cu  0.99289215  0.32406030  0.99469587     1.04600
Cu108      Cu  0.99209278  0.27090734  0.99637689     1.04300
C109        C  0.05238406  0.29719232  0.00374719     0.93500
C110        C  0.93266118  0.29928956  0.98778098     0.92600
C111        C  0.98479780  0.29840927  0.05269937     0.84800
C112        C  0.00007731  0.29505240  0.93835137     0.91000
N113        N  0.97581557  0.28979177  0.29290918    -0.03200
C114        C  0.96608066  0.31119786  0.31201617    -0.00600
C115        C  0.94841658  0.33260066  0.29811419    -0.23500
C116        C  0.94732215  0.32498080  0.26965864    -0.23700
C117        C  0.96427676  0.29904418  0.26671100    -0.00700
H118        H  0.93950618  0.35310993  0.30734644     0.13000
H119        H  0.93733092  0.33831591  0.25240341     0.13100
N120        N  0.02183265  0.72464837  0.29370584    -0.03200
C121        C  0.03288696  0.70410033  0.31320392    -0.00600
C122        C  0.04937113  0.68188891  0.29942226    -0.23500
C123        C  0.04814591  0.68803917  0.27059666    -0.23700
C124        C  0.03112737  0.71392974  0.26747200    -0.00700
H125        H  0.05884018  0.66174532  0.30916433     0.13000
H126        H  0.05671692  0.67387729  0.25345816     0.13100
N127        N  0.71165787  0.01605093  0.29103346    -0.03200
C128        C  0.68803127  0.02537181  0.30808075    -0.00600
C129        C  0.66558253  0.03899886  0.29151125    -0.23500
C130        C  0.67511590  0.03793419  0.26341575    -0.23700
C131        C  0.70326863  0.02388451  0.26349940    -0.00700
H132        H  0.64350450  0.04683031  0.29890416     0.13000
H133        H  0.66218117  0.04521666  0.24465350     0.13100
O134        O  0.99894845  0.96074867  0.33843526    -0.72700
O135        O  0.99609963  0.05264178  0.33995296    -0.73700
O136        O  0.95103296  0.00544791  0.34072995    -0.62300
O137        O  0.04372973  0.00735327  0.33795115    -0.70700
O138        O  0.04202390  0.00894198  0.29004442    -0.70300
O139        O  0.95004489  0.00576128  0.29278769    -0.61500
O140        O  0.99500322  0.05297578  0.29206117    -0.74000
O141        O  0.99733612  0.96228721  0.29056784    -0.72800
Cu142      Cu  0.99748398  0.00658040  0.34099309     1.04600
Cu143      Cu  0.99599221  0.00760901  0.28981285     1.04300
C144        C  0.99857221  0.94709389  0.31409697     0.93500
C145        C  0.99557820  0.06726895  0.31598054     0.92600
C146        C  0.93598048  0.00459446  0.31699077     0.84800
C147        C  0.05746288  0.00822172  0.31353787     0.91000
N148        N  0.72339038  0.69929419  0.96862959    -0.03200
C149        C  0.70412214  0.67934849  0.95580593    -0.00600
C150        C  0.68706278  0.69353706  0.93447107    -0.23500
C151        C  0.69555798  0.72298877  0.93413977    -0.23700
C152        C  0.71782154  0.72595017  0.95499766    -0.00700
H153        H  0.66836176  0.68403241  0.92226310     0.13000
H154        H  0.68517633  0.74078746  0.92144018     0.13100
N155        N  0.03172076  0.72428419  0.70344728    -0.03200
C156        C  0.04554887  0.70525291  0.68426741    -0.00600
C157        C  0.06623797  0.68671327  0.69836829    -0.23500
C158        C  0.06487390  0.69347327  0.72700505    -0.23700
C159        C  0.04360215  0.71611276  0.72976701    -0.00700
H160        H  0.07868335  0.66803411  0.68916370     0.13000
H161        H  0.07622836  0.68139797  0.74436474     0.13100
N162        N  0.71447495  0.96689698  0.71111673    -0.03200
C163        C  0.69274656  0.95254365  0.69531327    -0.00600
C164        C  0.67353402  0.93649993  0.71328768    -0.23500
C165        C  0.68324333  0.94129345  0.74101522    -0.23700
C166        C  0.70830851  0.95985075  0.73917826    -0.00700
H167        H  0.65283988  0.92497067  0.70706591     0.13000
H168        H  0.67218436  0.93350421  0.76056504     0.13100
O169        O  0.78450939  0.99952864  0.04399785    -0.72700
O170        O  0.78581180  0.99744947  0.95548241    -0.73700
O171        O  0.78658114  0.04370679  0.99774828    -0.62300
O172        O  0.78442389  0.95283299  0.00034858    -0.70700
O173        O  0.73382328  0.95517908  0.99889853    -0.70300
O174        O  0.73591850  0.04429600  0.99969910    -0.61500
O175        O  0.73526306  0.00076591  0.95651884    -0.74000
O176        O  0.73388174  0.99883278  0.04219573    -0.72800
Cu177      Cu  0.78730376  0.99830482  0.99958276     1.04600
Cu178      Cu  0.73317050  0.99979340  0.99937323     1.04300
C179        C  0.75855292  0.99903530  0.05687128     0.93500
C180        C  0.76014617  0.99956108  0.94223839     0.92600
C181        C  0.76128195  0.05817639  0.99773560     0.84800
C182        C  0.75847074  0.93975390  0.99936209     0.91000
O183        O  0.94932049  0.00383597  0.65813681    -0.72700
O184        O  0.04191083  0.00405692  0.65929625    -0.73700
O185        O  0.99636989  0.95873472  0.65973355    -0.62300
O186        O  0.99550559  0.05010845  0.65765062    -0.70700
O187        O  0.99402337  0.05093577  0.70552843    -0.70300
O188        O  0.99505139  0.95990237  0.70760166    -0.61500
O189        O  0.04091725  0.00605594  0.70721322    -0.74000
O190        O  0.94874841  0.00567013  0.70606150    -0.72800
Cu191      Cu  0.99574400  0.00422824  0.65702296     1.04600
Cu192      Cu  0.99468701  0.00564877  0.70821633     1.04300
C193        C  0.93447794  0.00464811  0.68195832     0.93500
C194        C  0.05596267  0.00492575  0.68354768     0.92600
C195        C  0.99606538  0.94488394  0.68406375     0.84800
C196        C  0.99454192  0.06494332  0.68130669     0.91000
O197        O  0.05187262  0.68661479  0.00184576    -0.72700
O198        O  0.96111382  0.68572052  0.99664167    -0.73700
O199        O  0.00880321  0.68639598  0.95509392    -0.62300
O200        O  0.00379130  0.68811332  0.04306816    -0.70700
O201        O  0.00534912  0.73782327  0.04095753    -0.70300
O202        O  0.00744882  0.73614886  0.95516344    -0.61500
O203        O  0.95910754  0.73540516  0.99730800    -0.74000
O204        O  0.05273315  0.73626828  0.99921513    -0.72800
Cu205      Cu  0.00638244  0.68499225  0.99917036     1.04600
Cu206      Cu  0.00602648  0.73814972  0.99806975     1.04300
C207        C  0.06685973  0.71109024  0.00151076     0.93500
C208        C  0.94554580  0.70993368  0.99647666     0.92600
C209        C  0.00914554  0.71150067  0.94143030     0.84800
C210        C  0.00449240  0.71362829  0.05569876     0.91000
C211        C  0.80346868  0.03119030  0.72646018    -0.17600
C212        C  0.83500993  0.03542353  0.72345268    -0.19800
C213        C  0.85188391  0.01828212  0.70365903     0.20900
C214        C  0.83661496  0.99734200  0.68606073    -0.02700
C215        C  0.80484738  0.99269865  0.68946739    -0.05700
C216        C  0.78828020  0.00946733  0.70999583     0.21200
C217        C  0.78994290  0.97044607  0.67316057     0.19300
C218        C  0.80660380  0.95399897  0.65269037    -0.17200
C219        C  0.83792139  0.95898432  0.64892074    -0.19400
C220        C  0.85325900  0.98024878  0.66580238     0.20800
C221        C  0.88506805  0.98397665  0.66348562    -0.32500
C222        C  0.90062045  0.00370587  0.68193902     0.01500
C223        C  0.88383114  0.02102910  0.70175587    -0.23800
C224        C  0.75724791  0.00312231  0.71479118    -0.28400
C225        C  0.74292362  0.97917207  0.70046777     0.07200
C226        C  0.75911882  0.96387630  0.67873785    -0.27000
H227        H  0.79112122  0.04427371  0.74232305     0.11900
H228        H  0.84630499  0.05176207  0.73698709     0.13000
H229        H  0.79552331  0.93684873  0.63995588     0.12100
H230        H  0.85031043  0.94564941  0.63328447     0.11400
H231        H  0.89794864  0.97043406  0.64834934     0.16700
H232        H  0.89572975  0.03641329  0.71588987     0.12700
H233        H  0.74473305  0.01568447  0.73089460     0.15500
H234        H  0.74835160  0.94537703  0.66761839     0.15300
C235        C  0.69168862  0.01707402  0.82726395    -0.17600
C236        C  0.69892509  0.02239550  0.85617363    -0.19800
C237        C  0.72612059  0.01102453  0.86809724     0.20900
C238        C  0.74701889  0.99541766  0.85048737    -0.02700
C239        C  0.73971224  0.99004747  0.82121418    -0.05700
C240        C  0.71156541  0.00033497  0.80986611     0.21200
C241        C  0.75969008  0.97295548  0.80381563     0.19300
C242        C  0.78755883  0.96285669  0.81551785    -0.17200
C243        C  0.79485222  0.96827067  0.84458215    -0.19400
C244        C  0.77438868  0.98385356  0.86249214     0.20800
C245        C  0.77993986  0.98677908  0.89241304    -0.32500
C246        C  0.75808643  0.00064787  0.91027183     0.01500
C247        C  0.73191520  0.01368760  0.89767122    -0.23800
C248        C  0.70291643  0.99220905  0.78189429    -0.28400
C249        C  0.72173068  0.97364204  0.76516637     0.07200
C250        C  0.75055814  0.96484799  0.77570412    -0.27000
H251        H  0.67007844  0.02521618  0.81877241     0.11900
H252        H  0.68276998  0.03457560  0.86946063     0.13000
H253        H  0.80329933  0.94993946  0.80244519     0.12100
H254        H  0.81607532  0.95942841  0.85328569     0.11400
H255        H  0.80023363  0.97680869  0.90197688     0.16700
H256        H  0.71525545  0.02494428  0.91119105     0.12700
H257        H  0.68064625  0.99883635  0.77365059     0.15500
H258        H  0.76492588  0.95034292  0.76274400     0.15300
C259        C  0.05179316  0.76076998  0.85501890    -0.17600
C260        C  0.05543278  0.76278996  0.82501361    -0.19800
C261        C  0.04015798  0.74286052  0.80666291     0.20900
C262        C  0.02060081  0.72095673  0.81871812    -0.02700
C263        C  0.01745856  0.71848452  0.84906474    -0.05700
C264        C  0.03314386  0.73852377  0.86722944     0.21200
C265        C  0.99916794  0.69559721  0.86122218     0.19300
C266        C  0.98345431  0.67601623  0.84282947    -0.17200
C267        C  0.98631869  0.67865058  0.81275650    -0.19400
C268        C  0.00512630  0.70077251  0.80052138     0.20800
C269        C  0.01008948  0.70199131  0.77055673    -0.32500
C270        C  0.03091336  0.72254587  0.75864022     0.01500
C271        C  0.04535353  0.74337223  0.77666158    -0.23800
C272        C  0.03013022  0.73583214  0.89729866    -0.28400
C273        C  0.01233136  0.71289051  0.90962526     0.07200
C274        C  0.99706093  0.69266253  0.89150020    -0.27000
H275        H  0.06398960  0.77632075  0.86872176     0.11900
H276        H  0.07051604  0.77971226  0.81617690     0.13000
H277        H  0.96916667  0.65846027  0.85170877     0.12100
H278        H  0.97432432  0.66294138  0.79906540     0.11400
H279        H  0.99965926  0.68537695  0.75667447     0.16700
H280        H  0.06199361  0.75866200  0.76753173     0.12700
H281        H  0.04204543  0.75139878  0.91124318     0.15500
H282        H  0.98306506  0.67517116  0.90094197     0.15300
C283        C  0.02866025  0.84758886  0.64158685    -0.17600
C284        C  0.03308152  0.81647805  0.64397691    -0.19800
C285        C  0.02253221  0.80063063  0.66832274     0.20900
C286        C  0.00681015  0.81633070  0.69015884    -0.02700
C287        C  0.00288271  0.84790881  0.68803788    -0.05700
C288        C  0.01397005  0.86362921  0.66367476     0.21200
C289        C  0.98851169  0.86378900  0.71060746     0.19300
C290        C  0.97716138  0.84781387  0.73452641    -0.17200
C291        C  0.98052151  0.81655834  0.73634197    -0.19400
C292        C  0.99570990  0.80062331  0.71448287     0.20800
C293        C  0.00101891  0.76951364  0.71714435    -0.32500
C294        C  0.01898935  0.75388576  0.69674906     0.01500
C295        C  0.02865252  0.76970152  0.67180364    -0.23800
C296        C  0.01076778  0.89510970  0.66211351    -0.28400
C297        C  0.99741796  0.91133419  0.68499781     0.07200
C298        C  0.98619086  0.89533512  0.70910557    -0.27000
H299        H  0.03730296  0.85920619  0.62267526     0.11900
H300        H  0.04513385  0.80485630  0.62690658     0.13000
H301        H  0.96590849  0.85953989  0.75201256     0.12100
H302        H  0.97187884  0.80492185  0.75524424     0.11400
H303        H  0.99201286  0.75784438  0.73577297     0.16700
H304        H  0.04255779  0.75842475  0.65583432     0.12700
H305        H  0.01960254  0.90709195  0.64348100     0.15500
H306        H  0.97562317  0.90746092  0.72673396     0.15300
C307        C  0.85451471  0.65452044  0.96438702    -0.17600
C308        C  0.82280602  0.65125069  0.96237194    -0.19800
C309        C  0.80319106  0.67171809  0.97599218     0.20900
C310        C  0.81572027  0.69514088  0.99262276    -0.02700
C311        C  0.84778223  0.69893281  0.99403176    -0.05700
C312        C  0.86717747  0.67858111  0.97969032     0.21200
C313        C  0.86035763  0.72350476  0.00907141     0.19300
C314        C  0.84066712  0.74331449  0.02355468    -0.17200
C315        C  0.80891286  0.73925599  0.02256336    -0.19400
C316        C  0.79619636  0.71553868  0.00674446     0.20800
C317        C  0.76438993  0.71320709  0.00295936    -0.32500
C318        C  0.75205251  0.69261997  0.98307855     0.01500
C319        C  0.77145599  0.67058243  0.97138096    -0.23800
C320        C  0.89888757  0.68276840  0.98059125    -0.28400
C321        C  0.91173846  0.70742170  0.99504875     0.07200
C322        C  0.89229927  0.72784499  0.00917918    -0.27000
H323        H  0.86914500  0.63862046  0.95335852     0.11900
H324        H  0.81361868  0.63308971  0.94959177     0.13000
H325        H  0.84980284  0.76218919  0.03536599     0.12100
H326        H  0.79424515  0.75528555  0.03337227     0.11400
H327        H  0.74948995  0.72960671  0.01292018     0.16700
H328        H  0.76226779  0.65449606  0.95622731     0.12700
H329        H  0.91368289  0.66691532  0.96965144     0.15500
H330        H  0.90204404  0.74660647  0.02074211     0.15300
C331        C  0.79748838  0.84020417  0.96817977    -0.17600
C332        C  0.79162907  0.81012114  0.96141682    -0.19800
C333        C  0.76307832  0.79733665  0.96759767     0.20900
C334        C  0.74058863  0.81483879  0.98157675    -0.02700
C335        C  0.74645272  0.84512403  0.98828408    -0.05700
C336        C  0.77489292  0.85806511  0.98121723     0.21200
C337        C  0.72340961  0.86269883  0.00122433     0.19300
C338        C  0.69519624  0.84980665  0.00820722    -0.19600
C339        C  0.68944483  0.81985789  0.00170751    -0.19400
C340        C  0.71179202  0.80238526  0.98806552     0.20800
C341        C  0.70542722  0.77292864  0.98007676    -0.32500
C342        C  0.72720599  0.75570738  0.96542972     0.01500
C343        C  0.75616861  0.76773950  0.95940032    -0.23800
C344        C  0.77968797  0.88883218  0.98636908    -0.28400
C345        C  0.75611996  0.90667477  0.99800789     0.07200
C346        C  0.72844596  0.89316969  0.00604323    -0.27000
H347        H  0.81950006  0.84966565  0.96268796     0.11900
H348        H  0.80925245  0.79700397  0.95090683     0.13000
H349        H  0.67734722  0.86305752  0.01822306     0.12100
H350        H  0.66728283  0.81051353  0.00685533     0.11400
H351        H  0.68311747  0.76348598  0.98457839     0.16700
H352        H  0.77290267  0.75429931  0.94798794     0.12700
H353        H  0.80106423  0.89912881  0.98004325     0.15500
H354        H  0.71030864  0.90666808  0.01531686     0.15300
C355        C  0.80187971  0.03339707  0.35200174    -0.17600
C356        C  0.83371649  0.03219239  0.35546098    -0.19800
C357        C  0.85193632  0.01592415  0.33603607     0.20900
C358        C  0.83768702  0.99967783  0.31363848    -0.02700
C359        C  0.80548581  0.00041634  0.31050689    -0.05700
C360        C  0.78757502  0.01801975  0.32928587     0.21200
C361        C  0.79136168  0.98451466  0.28785505     0.19300
C362        C  0.80941623  0.96738713  0.26903033    -0.17200
C363        C  0.84127520  0.96707156  0.27180890    -0.19400
C364        C  0.85565437  0.98358288  0.29368291     0.20800
C365        C  0.88766967  0.98501173  0.29537014    -0.32500
C366        C  0.90214307  0.00179263  0.31709977     0.01500
C367        C  0.88411092  0.01642801  0.33795426    -0.23800
C368        C  0.75600023  0.02122788  0.32405173    -0.28400
C369        C  0.74200044  0.00691394  0.30036627     0.07200
C370        C  0.75967193  0.98720608  0.28348402    -0.27000
H371        H  0.78849585  0.04688953  0.36675858     0.11900
H372        H  0.84416253  0.04470227  0.37286642     0.13000
H373        H  0.79896265  0.95499682  0.25154505     0.12100
H374        H  0.85471984  0.95436197  0.25646695     0.11400
H375        H  0.90142276  0.97325099  0.27954750     0.16700
H376        H  0.89510707  0.02931402  0.35480817     0.12700
H377        H  0.74274528  0.03647345  0.33723486     0.15500
H378        H  0.74904861  0.97508868  0.26595530     0.15300
C379        C  0.77816567  0.03953621  0.18427148    -0.17600
C380        C  0.78582501  0.03619007  0.15497354    -0.19800
C381        C  0.76832903  0.01778443  0.13680815     0.20900
C382        C  0.74322425  0.00211194  0.14860231    -0.02700
C383        C  0.73567087  0.00527096  0.17818242    -0.05700
C384        C  0.75294277  0.02442760  0.19608185     0.21200
C385        C  0.71010591  0.99008188  0.18954752     0.19300
C386        C  0.69266721  0.97153584  0.17159282    -0.17200
C387        C  0.70001348  0.96856299  0.14237524    -0.19400
C388        C  0.72499686  0.98398984  0.13064711     0.20800
C389        C  0.73137845  0.98230714  0.10106094    -0.32500
C390        C  0.75581705  0.99832748  0.08884486     0.01500
C391        C  0.77475019  0.01551103  0.10694537    -0.23800
C392        C  0.74382978  0.02904194  0.22501468    -0.28400
C393        C  0.71775162  0.01459760  0.23599824     0.07200
C394        C  0.70154064  0.99468693  0.21832798    -0.27000
H395        H  0.79172037  0.05433378  0.19759895     0.11900
H396        H  0.80513579  0.04845615  0.14639662     0.13000
H397        H  0.67294352  0.95978999  0.18002165     0.12100
H398        H  0.68583445  0.95454961  0.12882676     0.11400
H399        H  0.71676959  0.96894819  0.08726060     0.16700
H400        H  0.79339601  0.02818967  0.09760512     0.12700
H401        H  0.75600963  0.04483153  0.23848596     0.15500
H402        H  0.68117847  0.98392580  0.22669728     0.15300
C403        C  0.03126749  0.81627271  0.35249542    -0.17600
C404        C  0.02848976  0.84750767  0.35519119    -0.19800
C405        C  0.01455635  0.86475830  0.33327257     0.20900
C406        C  0.00287827  0.85015638  0.30861281    -0.02700
C407        C  0.00507719  0.81849408  0.30621254    -0.05700
C408        C  0.01975383  0.80151872  0.32803048     0.21200
C409        C  0.99300011  0.80391280  0.28177284     0.19300
C410        C  0.97904391  0.82108818  0.25983161    -0.17200
C411        C  0.97747299  0.85240628  0.26188558    -0.19400
C412        C  0.98935035  0.86718892  0.28615421     0.20800
C413        C  0.98810744  0.89867214  0.28822015    -0.32500
C414        C  0.99955539  0.91357666  0.31276214     0.01500
C415        C  0.01243707  0.89629899  0.33538882    -0.23800
C416        C  0.02362472  0.77031425  0.32454420    -0.28400
C417        C  0.01244904  0.75545222  0.29975724     0.07200
C418        C  0.99582644  0.77255877  0.27922577    -0.27000
H419        H  0.04260217  0.80365225  0.36952895     0.11900
H420        H  0.03764371  0.85822828  0.37428430     0.13000
H421        H  0.96981052  0.81032970  0.24078708     0.12100
H422        H  0.96696728  0.86509029  0.24442650     0.11400
H423        H  0.97796920  0.91161727  0.27072660     0.16700
H424        H  0.02151754  0.90744943  0.35429431     0.12700
H425        H  0.03670651  0.75792849  0.34054475     0.15500
H426        H  0.98561946  0.76178602  0.26075629     0.15300
C427        C  0.97109959  0.68060886  0.15301659    -0.17600
C428        C  0.97315024  0.68260686  0.18314531    -0.19800
C429        C  0.99294699  0.70333141  0.19604006     0.20900
C430        C  0.01000363  0.72304287  0.17849704    -0.02700
C431        C  0.00765015  0.72126256  0.14809332    -0.05700
C432        C  0.98862197  0.69947092  0.13528103     0.21200
C433        C  0.02509616  0.74062230  0.13054146     0.19300
C434        C  0.04444383  0.76174758  0.14344484    -0.17200
C435        C  0.04730264  0.76303648  0.17355489    -0.19400
C436        C  0.03052606  0.74352148  0.19127688     0.20800
C437        C  0.03524713  0.74282455  0.22134956    -0.32500
C438        C  0.01938666  0.72219666  0.23862947     0.01500
C439        C  0.99744268  0.70338733  0.22604001    -0.23800
C440        C  0.98787610  0.69661749  0.10502083    -0.28400
C441        C  0.00525982  0.71585107  0.08751039     0.07200
C442        C  0.02338812  0.73809253  0.10039683    -0.27000
H443        H  0.95618261  0.66396300  0.14358910     0.11900
H444        H  0.95989366  0.66733649  0.19636855     0.13000
H445        H  0.05794136  0.77680422  0.13021526     0.12100
H446        H  0.06307580  0.77892172  0.18296074     0.11400
H447        H  0.05261927  0.75682296  0.23106830     0.16700
H448        H  0.98577442  0.68701091  0.23943594     0.12700
H449        H  0.97358601  0.67974298  0.09508061     0.15500
H450        H  0.03686606  0.75293465  0.08688484     0.15300
C451        C  0.02228018  0.19355116  0.26395168    -0.17600
C452        C  0.02393193  0.16224853  0.26667772    -0.19800
C453        C  0.00987007  0.14745308  0.28998743     0.20900
C454        C  0.99471993  0.16451409  0.31122118    -0.02700
C455        C  0.99278342  0.19623079  0.30828933    -0.05700
C456        C  0.00633648  0.21076578  0.28435924     0.21200
C457        C  0.97656823  0.21325870  0.32882390     0.19300
C458        C  0.96328001  0.19850362  0.35261285    -0.17200
C459        C  0.96552374  0.16719951  0.35571334    -0.19400
C460        C  0.98087319  0.14985454  0.33496274     0.20800
C461        C  0.98203696  0.11817197  0.33713267    -0.32500
C462        C  0.99609237  0.10088346  0.31536285     0.01500
C463        C  0.01019309  0.11590912  0.29205094    -0.23800
C464        C  0.00280322  0.24203540  0.28063052    -0.28400
C465        C  0.98514203  0.25915976  0.30004429     0.07200
C466        C  0.97288118  0.24448288  0.32460874    -0.27000
H467        H  0.03292897  0.20424967  0.24547006     0.11900
H468        H  0.03588426  0.14954659  0.25027049     0.13000
H469        H  0.95075661  0.21115377  0.36867346     0.12100
H470        H  0.95474602  0.15649375  0.37412165     0.11400
H471        H  0.97108890  0.10694446  0.35517119     0.16700
H472        H  0.02142885  0.10294875  0.27536078     0.12700
H473        H  0.01306700  0.25283860  0.26205969     0.15500
H474        H  0.95894727  0.25704612  0.33964606     0.15300
C475        C  0.01783700  0.32992812  0.17956221    -0.17600
C476        C  0.01832033  0.33250621  0.14936754    -0.19800
C477        C  0.99931320  0.31456911  0.13223287     0.20900
C478        C  0.97974175  0.29364484  0.14575917    -0.02700
C479        C  0.97892941  0.29134245  0.17634269    -0.05700
C480        C  0.99810397  0.30958448  0.19326064     0.21200
C481        C  0.95827920  0.27151876  0.18997750     0.19300
C482        C  0.93935595  0.25349455  0.17279621    -0.17200
C483        C  0.94079959  0.25513660  0.14251369    -0.19400
C484        C  0.96078215  0.27524873  0.12876066     0.20800
C485        C  0.96224960  0.27723816  0.09836636    -0.32500
C486        C  0.98165444  0.29811320  0.08471333     0.01500
C487        C  0.99974165  0.31702610  0.10185187    -0.23800
C488        C  0.99603355  0.30840377  0.22356241    -0.28400
C489        C  0.97425821  0.29013019  0.23733585     0.07200
C490        C  0.95584410  0.27126213  0.22042547    -0.27000
H491        H  0.03256061  0.34425893  0.19224646     0.11900
H492        H  0.03356648  0.34860038  0.13940626     0.13000
H493        H  0.92329029  0.23821424  0.18278486     0.12100
H494        H  0.92598843  0.24089348  0.12982976     0.11400
H495        H  0.94821604  0.26261655  0.08526890     0.16700
H496        H  0.01500448  0.33285587  0.09148466     0.12700
H497        H  0.00944932  0.32377523  0.23645528     0.15500
H498        H  0.93831591  0.25794571  0.23084073     0.15300
C499        C  0.98261237  0.33542734  0.83930184    -0.17600
C500        C  0.98586459  0.33318487  0.80926085    -0.19800
C501        C  0.00129180  0.30867766  0.79702803     0.20900
C502        C  0.01283150  0.28575496  0.81519835    -0.02700
C503        C  0.00922573  0.28786289  0.84557375    -0.05700
C504        C  0.99450053  0.31308518  0.85770652     0.21200
C505        C  0.02097242  0.26509742  0.86380276     0.19300
C506        C  0.03608101  0.24040006  0.85150410    -0.17200
C507        C  0.04024996  0.23864869  0.82149773    -0.19400
C508        C  0.02901965  0.26135046  0.80312986     0.20800
C509        C  0.03505460  0.26094677  0.77318163    -0.32500
C510        C  0.02458922  0.28436652  0.75519740     0.01500
C511        C  0.00684870  0.30756127  0.76714179    -0.23800
C512        C  0.99213734  0.31565249  0.88798232    -0.28400
C513        C  0.00363119  0.29297304  0.90636107     0.07200
C514        C  0.01773286  0.26760227  0.89398666    -0.27000
H515        H  0.97106464  0.35484375  0.84816567     0.11900
H516        H  0.97690400  0.35100701  0.79561238     0.13000
H517        H  0.04520774  0.22266833  0.86516227     0.12100
H518        H  0.05265378  0.21971667  0.81269170     0.11400
H519        H  0.04931753  0.24343301  0.76412665     0.16700
H520        H  0.99947326  0.32602334  0.75339573     0.12700
H521        H  0.98090223  0.33506142  0.89723969     0.15500
H522        H  0.02668659  0.25000031  0.90792510     0.15300
C523        C  0.02760003  0.19393314  0.63936995    -0.17600
C524        C  0.02408445  0.16275776  0.63718196    -0.19800
C525        C  0.00930825  0.14643436  0.65911402     0.20900
C526        C  0.99692719  0.16198971  0.68292767    -0.02700
C527        C  0.99999146  0.19359050  0.68485642    -0.05700
C528        C  0.01610609  0.20951725  0.66337670     0.21200
C529        C  0.98798226  0.20904599  0.70885634     0.19300
C530        C  0.97233373  0.19290349  0.73033536    -0.17200
C531        C  0.96975574  0.16163693  0.72869031    -0.19400
C532        C  0.98239574  0.14589639  0.70532696     0.20800
C533        C  0.98140088  0.11434905  0.70435668    -0.32500
C534        C  0.99418661  0.09848011  0.68099125     0.01500
C535        C  0.00746226  0.11484306  0.65808025    -0.23800
C536        C  0.02204224  0.24031366  0.66713179    -0.28400
C537        C  0.01204451  0.25564751  0.69213248     0.07200
C538        C  0.99326230  0.24002169  0.71183792    -0.27000
H539        H  0.03991977  0.20577472  0.62254863     0.11900
H540        H  0.03364295  0.15130677  0.61865971     0.13000
H541        H  0.96292962  0.20435483  0.74893026     0.12100
H542        H  0.95829325  0.14969632  0.74598807     0.11400
H543        H  0.97079488  0.10207920  0.72195236     0.16700
H544        H  0.01740841  0.10293237  0.64000135     0.12700
H545        H  0.03645582  0.25168556  0.65158991     0.15500
H546        H  0.98412078  0.25149233  0.73046204     0.15300
C547        C  0.82897238  0.26188054  0.00830211    -0.17600
C548        C  0.79744823  0.26267492  0.00340040    -0.19800
C549        C  0.78482588  0.28316078  0.98352762     0.20900
C550        C  0.80393556  0.30387489  0.96927563    -0.02700
C551        C  0.83568711  0.30352107  0.97469473    -0.05700
C552        C  0.84831958  0.28190565  0.99376549     0.21200
C553        C  0.85487365  0.32410803  0.96032586     0.19300
C554        C  0.84209170  0.34504147  0.94092119    -0.17200
C555        C  0.81070936  0.34481440  0.93494185    -0.19400
C556        C  0.79151715  0.32399855  0.94865692     0.20800
C557        C  0.76064596  0.32145117  0.94067261    -0.32500
C558        C  0.74215874  0.29913616  0.95315693     0.01500
C559        C  0.75381343  0.28187089  0.97620111    -0.23800
C560        C  0.88009114  0.28036684  0.99761623    -0.28400
C561        C  0.89929975  0.30074460  0.98335744     0.07200
C562        C  0.88653526  0.32292592  0.96516918    -0.27000
H563        H  0.83827267  0.24531126  0.02315484     0.11900
H564        H  0.78305198  0.24652530  0.01439720     0.13000
H565        H  0.85649089  0.36105760  0.92976836     0.12100
H566        H  0.80155859  0.36049308  0.91913221     0.11400
H567        H  0.75173826  0.33493254  0.92296885     0.16700
H568        H  0.73932501  0.26553667  0.98672666     0.12700
H569        H  0.88988885  0.26356487  0.01196554     0.15500
H570        H  0.90136871  0.33867872  0.95414201     0.15300
C571        C  0.69660931  0.18025893  0.99620976    -0.17600
C572        C  0.70424821  0.15198983  0.00716658    -0.19800
C573        C  0.72994769  0.13665542  0.99672554     0.20900
C574        C  0.74896933  0.15038647  0.97594337    -0.02700
C575        C  0.74122158  0.17896041  0.96482133    -0.05700
C576        C  0.71455483  0.19357774  0.97465355     0.21200
C577        C  0.75938667  0.19233857  0.94308713     0.19300
C578        C  0.78572863  0.17735712  0.93345482    -0.17200
C579        C  0.79336147  0.14890623  0.94443728    -0.19400
C580        C  0.77483339  0.13498084  0.96530683     0.20800
C581        C  0.78063135  0.10536326  0.97457834    -0.32500
C582        C  0.76042470  0.09100905  0.99378410     0.01500
C583        C  0.73588850  0.10717604  0.00554110    -0.23800
C584        C  0.70570885  0.22082969  0.96214315    -0.28400
C585        C  0.72317960  0.23384514  0.94011115     0.07200
C586        C  0.75026537  0.21995241  0.93085853    -0.27000
H587        H  0.67622132  0.19138528  0.00408268     0.11900
H588        H  0.68955545  0.14175023  0.02323043     0.13000
H589        H  0.80003527  0.18732753  0.91693183     0.12100
H590        H  0.81334566  0.13747539  0.93607491     0.11400
H591        H  0.79943471  0.09282254  0.96526546     0.16700
H592        H  0.72038629  0.09617577  0.02044566     0.12700
H593        H  0.68491068  0.23187737  0.96921776     0.15500
H594        H  0.76368943  0.23027916  0.91386054     0.15300
C595        C  0.15741670  0.97364491  0.35191224    -0.17600
C596        C  0.18906663  0.97015961  0.34880808    -0.19800
C597        C  0.20445339  0.98365542  0.32554305     0.20900
C598        C  0.18780190  0.00114271  0.30542417    -0.02700
C599        C  0.15569067  0.00388072  0.30802671    -0.05700
C600        C  0.14044326  0.99014922  0.33146193     0.21200
C601        C  0.13882866  0.01989125  0.28691103     0.19300
C602        C  0.15432931  0.03384796  0.26395780    -0.17200
C603        C  0.18621738  0.03193646  0.26191711    -0.19400
C604        C  0.20314609  0.01543989  0.28241421     0.20800
C605        C  0.23499262  0.01222170  0.27977085    -0.32500
C606        C  0.25146700  0.99254913  0.29808842     0.01500
C607        C  0.23595120  0.97903381  0.32144825    -0.23800
C608        C  0.10847660  0.99266130  0.33372071    -0.28400
C609        C  0.09138609  0.00777858  0.31227875     0.07200
C610        C  0.10678624  0.02134494  0.28893749    -0.27000
H611        H  0.14612170  0.96292424  0.37003064     0.11900
H612        H  0.20149982  0.95673799  0.36454140     0.13000
H613        H  0.14177779  0.04624835  0.24754961     0.12100
H614        H  0.19758410  0.04281550  0.24392251     0.11400
H615        H  0.24666453  0.02422705  0.26271637     0.16700
H616        H  0.24804594  0.96375275  0.33573574     0.12700
H617        H  0.09677416  0.98191121  0.35160783     0.15500
H618        H  0.09380131  0.03315588  0.27240779     0.15300
C619        C  0.21964883  0.97175096  0.18469427    -0.17600
C620        C  0.21244041  0.97674894  0.15555926    -0.19800
C621        C  0.23238607  0.99295007  0.13765967     0.20900
C622        C  0.25927624  0.00527197  0.14947261    -0.02700
C623        C  0.26631847  0.00059874  0.17890743    -0.05700
C624        C  0.24676378  0.98313444  0.19645901     0.21200
C625        C  0.29356966  0.01236127  0.19044714     0.19300
C626        C  0.31314653  0.02924694  0.17280753    -0.17200
C627        C  0.30633814  0.03357924  0.14356818    -0.19400
C628        C  0.27976241  0.02124505  0.13163092     0.20800
C629        C  0.27394701  0.02357250  0.10195477    -0.32500
C630        C  0.24785672  0.01030735  0.08987403     0.01500
C631        C  0.22660967  0.99595001  0.10793870    -0.23800
C632        C  0.25528912  0.97647210  0.22508633    -0.28400
C633        C  0.28270116  0.98772995  0.23634534     0.07200
C634        C  0.30137360  0.00607022  0.21913819    -0.27000
H635        H  0.20428770  0.95851212  0.19789371     0.11900
H636        H  0.19165402  0.96724258  0.14683491     0.13000
H637        H  0.33411104  0.03845917  0.18145867     0.12100
H638        H  0.32217444  0.04603629  0.13015995     0.11400
H639        H  0.29015661  0.03504693  0.08810664     0.16700
H640        H  0.20645190  0.98571447  0.09864750     0.12700
H641        H  0.24119350  0.96193240  0.23831456     0.15500
H642        H  0.32266658  0.01450306  0.22789550     0.15300
C643        C  0.27611889  0.04602832  0.85479996    -0.17600
C644        C  0.28275806  0.04240456  0.82552895    -0.19800
C645        C  0.26908028  0.01928387  0.80976798     0.20900
C646        C  0.24717541  0.00063879  0.82311355    -0.02700
C647        C  0.24038070  0.00437416  0.85270731    -0.05700
C648        C  0.25565447  0.02663165  0.86868876     0.21200
C649        C  0.21981549  0.98471713  0.86668678     0.19300
C650        C  0.20522316  0.96237232  0.85049103    -0.17200
C651        C  0.21216261  0.95850452  0.82114658    -0.19400
C652        C  0.23370573  0.97699908  0.80745018     0.20800
C653        C  0.24373373  0.97101176  0.77915466    -0.32500
C654        C  0.26709531  0.98830791  0.76676370     0.01500
C655        C  0.27868073  0.01309151  0.78161244    -0.23800
C656        C  0.25162045  0.02804122  0.89859382    -0.28400
C657        C  0.23255637  0.00759705  0.91291313     0.07200
C658        C  0.21566178  0.98672943  0.89683503    -0.27000
H659        H  0.28782071  0.06334053  0.86682162     0.11900
H660        H  0.29950583  0.05694206  0.81550664     0.13000
H661        H  0.18926631  0.94718317  0.86076338     0.12100
H662        H  0.20146219  0.94037145  0.80942902     0.11400
H663        H  0.23520740  0.95161012  0.76770084     0.16700
H664        H  0.29699318  0.02607975  0.77201719     0.12700
H665        H  0.26439966  0.04431265  0.91103928     0.15500
H666        H  0.20103343  0.97087379  0.90795588     0.15300
C667        C  0.15452781  0.95947034  0.65423680    -0.17600
C668        C  0.18621626  0.95638412  0.65777370    -0.19800
C669        C  0.20228576  0.97539101  0.67648015     0.20900
C670        C  0.18624534  0.99815269  0.69128998    -0.02700
C671        C  0.15413831  0.00078221  0.68829575    -0.05700
C672        C  0.13819363  0.98130901  0.66968954     0.21200
C673        C  0.13792872  0.02232821  0.70454965     0.19300
C674        C  0.15407943  0.04188623  0.72263171    -0.17200
C675        C  0.18590759  0.03972258  0.72508666    -0.19400
C676        C  0.20212085  0.01762604  0.70988685     0.20800
C677        C  0.23364546  0.01365821  0.71417629    -0.32500
C678        C  0.24929756  0.98925602  0.70174825     0.01500
C679        C  0.23370891  0.97101616  0.68187763    -0.23800
C680        C  0.10617470  0.98357701  0.66740639    -0.28400
C681        C  0.08981482  0.00424595  0.68435689     0.07200
C682        C  0.10585604  0.02356674  0.70283914    -0.27000
H683        H  0.14268492  0.94430270  0.63987504     0.11900
H684        H  0.19809586  0.93881146  0.64618446     0.13000
H685        H  0.14205204  0.05867104  0.73513220     0.12100
H686        H  0.19775526  0.05479129  0.73954646     0.11400
H687        H  0.24566556  0.02841566  0.72877207     0.16700
H688        H  0.24549762  0.95214596  0.67224834     0.12700
H689        H  0.09384095  0.96849771  0.65329984     0.15500
H690        H  0.09331940  0.03964341  0.71578273     0.15300
C691        C  0.21950899  0.82129410  0.05408056    -0.17600
C692        C  0.21227663  0.85082364  0.04594191    -0.19800
C693        C  0.23345910  0.86839751  0.03067613     0.20900
C694        C  0.26210958  0.85594687  0.02333292    -0.02700
C695        C  0.26939927  0.82624549  0.03152657    -0.05700
C696        C  0.24806907  0.80883874  0.04714081     0.21200
C697        C  0.29829140  0.81417125  0.02449988     0.19300
C698        C  0.31946793  0.83157316  0.00920550    -0.17200
C699        C  0.31227343  0.86096365  0.00116155    -0.19400
C700        C  0.28378146  0.87335287  0.00826175     0.20800
C701        C  0.27697061  0.90311768  0.00112254    -0.32500
C702        C  0.24883739  0.91602145  0.00888931     0.01500
C703        C  0.22689529  0.89839068  0.02323325    -0.23800
C704        C  0.25598072  0.77953664  0.05586522    -0.28400
C705        C  0.28484992  0.76775278  0.04895955     0.07200
C706        C  0.30575283  0.78504500  0.03326303    -0.27000
H707        H  0.20285826  0.80828323  0.06601818     0.11900
H708        H  0.19020128  0.86001032  0.05181810     0.13000
H709        H  0.34172008  0.82253670  0.00369663     0.12100
H710        H  0.32912229  0.87411619  0.98961834     0.11400
H711        H  0.29398800  0.91651735  0.99004245     0.16700
H712        H  0.20528817  0.90830906  0.02958760     0.12700
H713        H  0.24001672  0.76604774  0.06817759     0.15500
H714        H  0.32804620  0.77577314  0.02814707     0.15300
C715        C  0.15842071  0.65955617  0.03992000    -0.17600
C716        C  0.18989440  0.65854278  0.04520465    -0.19800
C717        C  0.20909109  0.68088144  0.03402745     0.20900
C718        C  0.19654327  0.70396535  0.01660157    -0.02700
C719        C  0.16462819  0.70542054  0.01185394    -0.05700
C720        C  0.14552914  0.68316940  0.02372466     0.21200
C721        C  0.15177876  0.72956864  0.99598503     0.19300
C722        C  0.17119975  0.75129929  0.98396432    -0.17200
C723        C  0.20289315  0.74951502  0.98817714    -0.19400
C724        C  0.21572543  0.72622596  0.00487887     0.20800
C725        C  0.24707353  0.72583888  0.01155245    -0.32500
C726        C  0.25901899  0.70509590  0.03179989     0.01500
C727        C  0.24018393  0.68165204  0.04156565    -0.23800
C728        C  0.11382085  0.68517811  0.01969292    -0.28400
C729        C  0.10062848  0.70955900  0.00462288     0.07200
C730        C  0.11978665  0.73171889  0.99279075    -0.27000
H731        H  0.14404878  0.64223787  0.04911210     0.11900
H732        H  0.19913936  0.64060091  0.05853510     0.13000
H733        H  0.16184492  0.76989799  0.97157995     0.12100
H734        H  0.21728102  0.76690953  0.97914176     0.11400
H735        H  0.26167524  0.74314510  0.00275126     0.16700
H736        H  0.24908809  0.66544425  0.05699656     0.12700
H737        H  0.09925658  0.66805930  0.02900552     0.15500
H738        H  0.10983510  0.75039065  0.98091334     0.15300
C739        C  0.21200216  0.18158781  0.07054539    -0.17600
C740        C  0.20466878  0.15331458  0.05953870    -0.19800
C741        C  0.22163606  0.14097011  0.03673954     0.20900
C742        C  0.24601745  0.15745398  0.02468032    -0.02700
C743        C  0.25360870  0.18576431  0.03595708    -0.05700
C744        C  0.23655197  0.19789909  0.05906588     0.21200
C745        C  0.27869067  0.20163632  0.02447311     0.19300
C746        C  0.29546542  0.18955489  0.00149622    -0.17200
C747        C  0.28791917  0.16154486  0.99031149    -0.19400
C748        C  0.26353942  0.14520675  0.00200326     0.20800
C749        C  0.25746240  0.11617263  0.99243536    -0.32500
C750        C  0.23440512  0.09899083  0.00543903     0.01500
C751        C  0.21574483  0.11184951  0.02678176    -0.23800
C752        C  0.24453392  0.22601793  0.07029052    -0.28400
C753        C  0.26945246  0.24165328  0.05874329     0.07200
C754        C  0.28666028  0.22928784  0.03622997    -0.27000
H755        H  0.19869778  0.19053985  0.08827232     0.11900
H756        H  0.18597761  0.14091818  0.06912935     0.13000
H757        H  0.31464552  0.20162601  0.99239158     0.12100
H758        H  0.30154173  0.15238711  0.97289532     0.11400
H759        H  0.27193395  0.10618810  0.97604640     0.16700
H760        H  0.19829990  0.09840739  0.03718556     0.12700
H761        H  0.23145122  0.23579729  0.08777382     0.15500
H762        H  0.30587109  0.24165992  0.02749444     0.15300
C763        C  0.15682519  0.25535015  0.99281135    -0.17600
C764        C  0.18837532  0.25742276  0.99741392    -0.19800
C765        C  0.20056156  0.28122001  0.01345125     0.20900
C766        C  0.18088465  0.30343978  0.02449524    -0.02700
C767        C  0.14912008  0.30176731  0.01923002    -0.05700
C768        C  0.13696274  0.27735180  0.00367416     0.21200
C769        C  0.12951614  0.32427450  0.02992319     0.19300
C770        C  0.14174501  0.34807662  0.04591585    -0.17200
C771        C  0.17309793  0.34923691  0.05183548    -0.19400
C772        C  0.19284833  0.32690872  0.04142180     0.20800
C773        C  0.22397751  0.32663873  0.04902649    -0.32500
C774        C  0.24340970  0.30343637  0.03959725     0.01500
C775        C  0.23185604  0.28228826  0.01991070    -0.23800
C776        C  0.10521757  0.27541488  0.99926122    -0.28400
C777        C  0.08565697  0.29810255  0.00939301     0.07200
C778        C  0.09802412  0.32250231  0.02458487    -0.27000
H779        H  0.14795455  0.23649583  0.98078850     0.11900
H780        H  0.20318562  0.23997448  0.98905947     0.13000
H781        H  0.12697320  0.36554300  0.05428031     0.12100
H782        H  0.18185076  0.36743000  0.06484286     0.11400
H783        H  0.23255210  0.34313690  0.06408598     0.16700
H784        H  0.24680344  0.26534726  0.01109941     0.12700
H785        H  0.09580879  0.25669741  0.98737854     0.15500
H786        H  0.08299968  0.33994007  0.03265832     0.15300
C787        C  0.07104427  0.63369893  0.57632113    -0.17600
C788        C  0.07508829  0.65816145  0.59474885    -0.19800
C789        C  0.05148005  0.66741247  0.61321620     0.20900
C790        C  0.02308444  0.65260052  0.61228855    -0.02700
C791        C  0.01894449  0.62788270  0.59350786    -0.05700
C792        C  0.04327241  0.61806934  0.57590301     0.21200
C793        C  0.99088689  0.61239027  0.59308246     0.19300
C794        C  0.96702982  0.62224311  0.61105444    -0.17200
C795        C  0.97132511  0.64634402  0.63004861    -0.19400
C796        C  0.99945156  0.66138274  0.63125282     0.20800
C797        C  0.00521314  0.68329519  0.65253777    -0.32500
C798        C  0.03443170  0.69614665  0.65519818     0.01500
C799        C  0.05666668  0.68950761  0.63417460    -0.23800
C800        C  0.03967319  0.59254079  0.55852521    -0.28400
C801        C  0.01192694  0.57660082  0.55803805     0.07200
C802        C  0.98742445  0.58706095  0.57513206    -0.27000
H803        H  0.08990142  0.62661977  0.56279242     0.11900
H804        H  0.09706040  0.66925478  0.59521400     0.13000
H805        H  0.94524584  0.61079959  0.61097379     0.12100
H806        H  0.95284901  0.65273077  0.64433801     0.11400
H807        H  0.98818493  0.68773754  0.66898100     0.16700
H808        H  0.07935512  0.69892560  0.63640816     0.12700
H809        H  0.05855749  0.58520120  0.54514170     0.15500
H810        H  0.96583789  0.57525180  0.57480459     0.15300
C811        C  0.96784462  0.36621424  0.62852375    -0.17600
C812        C  0.96375662  0.39058999  0.60951403    -0.19800
C813        C  0.98745551  0.39975590  0.59104311     0.20900
C814        C  0.01508215  0.38325851  0.59093884    -0.02700
C815        C  0.01905862  0.35838814  0.60984764    -0.05700
C816        C  0.99562594  0.35028950  0.62930940     0.21200
C817        C  0.04714692  0.34273388  0.61040266     0.19300
C818        C  0.07049219  0.35116068  0.59127736    -0.17200
C819        C  0.06656990  0.37570547  0.57263384    -0.19400
C820        C  0.03922038  0.39227172  0.57274433     0.20800
C821        C  0.03595704  0.41807554  0.55545758    -0.32500
C822        C  0.00879979  0.43521104  0.55576064     0.01500
C823        C  0.98434936  0.42547226  0.57324070    -0.23800
C824        C  0.00126395  0.32804273  0.65057567    -0.28400
C825        C  0.03021182  0.31427040  0.65280296     0.07200
C826        C  0.05230982  0.32052593  0.63153620    -0.27000
H827        H  0.94952287  0.36033520  0.64319172     0.11900
H828        H  0.94229725  0.40278660  0.60982751     0.13000
H829        H  0.09218768  0.33935733  0.59138787     0.12100
H830        H  0.08524780  0.38218072  0.55860778     0.11400
H831        H  0.05477790  0.42485390  0.54172223     0.16700
H832        H  0.96320730  0.43821315  0.57346184     0.12700
H833        H  0.98435217  0.32382372  0.66719033     0.15500
H834        H  0.07476636  0.31029302  0.63337411     0.15300
C835        C  0.06439903  0.66162566  0.40355699    -0.17600
C836        C  0.06092543  0.63726693  0.42238084    -0.19800
C837        C  0.03314192  0.62173999  0.42369235     0.20900
C838        C  0.00813550  0.63159975  0.40685287    -0.02700
C839        C  0.01170167  0.65620625  0.38765894    -0.05700
C840        C  0.04018950  0.67080056  0.38562169     0.21200
C841        C  0.98750883  0.66483867  0.36913218     0.19300
C842        C  0.95932670  0.65000071  0.37140918    -0.17200
C843        C  0.95560042  0.62598544  0.39087313    -0.19400
C844        C  0.98009547  0.61604233  0.40820629     0.20800
C845        C  0.97747063  0.59035042  0.42613278    -0.32500
C846        C  0.00288388  0.57969552  0.44201863     0.01500
C847        C  0.03036527  0.59599495  0.44094186    -0.23800
C848        C  0.04493811  0.69230361  0.36386555    -0.28400
C849        C  0.02223075  0.69830374  0.34307720     0.07200
C850        C  0.99286617  0.68611817  0.34700617    -0.27000
H851        H  0.08642365  0.67254992  0.40221990     0.11900
H852        H  0.08027431  0.63005484  0.43536362     0.13000
H853        H  0.94042130  0.65634281  0.35747023     0.12100
H854        H  0.93382509  0.61455261  0.39166494     0.11400
H855        H  0.95609901  0.57819946  0.42701333     0.16700
H856        H  0.04990934  0.58852747  0.45355175     0.12700
H857        H  0.06770675  0.70120762  0.36056986     0.15500
H858        H  0.97547095  0.69015516  0.33069826     0.15300
C859        C  0.03843820  0.37286562  0.36399472    -0.17600
C860        C  0.04165632  0.39710280  0.38300132    -0.19800
C861        C  0.01813083  0.40464717  0.40232844     0.20900
C862        C  0.99163185  0.38673943  0.40325396    -0.02700
C863        C  0.98862472  0.36189645  0.38440844    -0.05700
C864        C  0.01175886  0.35542066  0.36410488     0.21200
C865        C  0.96163513  0.34470874  0.38469086     0.19300
C866        C  0.93851436  0.35163295  0.40460845    -0.17200
C867        C  0.94145153  0.37618640  0.42315672    -0.19400
C868        C  0.96761839  0.39427570  0.42224624     0.20800
C869        C  0.96992611  0.41997593  0.43967092    -0.32500
C870        C  0.99616269  0.43819268  0.43885435     0.01500
C871        C  0.02038280  0.43001924  0.42033825    -0.23800
C872        C  0.00664039  0.33343549  0.34275422    -0.28400
C873        C  0.97843213  0.31835303  0.34114151     0.07200
C874        C  0.95701940  0.32271649  0.36343343    -0.27000
H875        H  0.05650581  0.36828457  0.34863702     0.11900
H876        H  0.06226007  0.41044959  0.38203875     0.13000
H877        H  0.91764257  0.33866530  0.40516436     0.12100
H878        H  0.92290200  0.38142970  0.43779005     0.11400
H879        H  0.95135947  0.42560111  0.45417257     0.16700
H880        H  0.04081562  0.44364883  0.41963414     0.12700
H881        H  0.02292723  0.33087356  0.32529182     0.15500
H882        H  0.93499175  0.31177374  0.36196015     0.15300
C883        C  0.62523663  0.92264710  0.58366099    -0.17600
C884        C  0.64872069  0.91929962  0.60404968    -0.19800
C885        C  0.65552994  0.94258299  0.62329577     0.20900
C886        C  0.63913379  0.96987078  0.62135225    -0.02700
C887        C  0.61516732  0.97311607  0.60098827    -0.05700
C888        C  0.60798521  0.94925543  0.58229647     0.21200
C889        C  0.59782054  0.99988232  0.59995468     0.19300
C890        C  0.60491524  0.02330100  0.61894053    -0.17200
C891        C  0.62859941  0.02007818  0.63912644    -0.19400
C892        C  0.64564419  0.99337280  0.64071452     0.20800
C893        C  0.66755724  0.98898706  0.66260369    -0.32500
C894        C  0.68211910  0.96105018  0.66606744     0.01500
C895        C  0.67687640  0.93833841  0.64571245    -0.23800
C896        C  0.58336836  0.95221685  0.56293222    -0.28400
C897        C  0.56577175  0.97876725  0.56187812     0.07200
C898        C  0.57338616  0.00259873  0.58031716    -0.27000
H899        H  0.62013810  0.90415845  0.56935806     0.11900
H900        H  0.66110030  0.89822582  0.60520043     0.13000
H901        H  0.59182563  0.04398197  0.61848086     0.12100
H902        H  0.63313920  0.03825996  0.65395198     0.11400
H903        H  0.67082760  0.00614002  0.67884453     0.16700
H904        H  0.68747068  0.91652707  0.64886273     0.12700
H905        H  0.57792008  0.93378676  0.54865643     0.15500
H906        H  0.56001806  0.02311772  0.57969622     0.15300
C907        C  0.34465050  0.02534670  0.61981514    -0.17600
C908        C  0.36812919  0.02764563  0.59931972    -0.19800
C909        C  0.38465381  0.00210983  0.59073904     0.20900
C910        C  0.37656438  0.97381076  0.60205353    -0.02700
C911        C  0.35258338  0.97143704  0.62245018    -0.05700
C912        C  0.33704231  0.99742870  0.63197488     0.21200
C913        C  0.34530729  0.94323997  0.63445526     0.19300
C914        C  0.36132679  0.91760482  0.62545264    -0.17200
C915        C  0.38501297  0.91995730  0.60531014    -0.19400
C916        C  0.39308513  0.94797981  0.59374610     0.20800
C917        C  0.41768738  0.95062002  0.57440700    -0.32500
C918        C  0.42629734  0.97879432  0.56329319     0.01500
C919        C  0.40941927  0.00442654  0.57146385    -0.23800
C920        C  0.31601452  0.99529190  0.65501390    -0.28400
C921        C  0.31072785  0.96751031  0.66864537     0.07200
C922        C  0.32389752  0.94143051  0.65689592    -0.27000
H923        H  0.33298358  0.04554783  0.62671916     0.11900
H924        H  0.37385749  0.04954941  0.59069223     0.13000
H925        H  0.35610620  0.89580216  0.63461144     0.12100
H926        H  0.39739312  0.89989108  0.59916301     0.11400
H927        H  0.43032411  0.93070700  0.56822578     0.16700
H928        H  0.41553595  0.02623366  0.56282844     0.12700
H929        H  0.30646443  0.01552609  0.66431454     0.15500
H930        H  0.32018435  0.92004404  0.66760399     0.15300
C931        C  0.64554850  0.05661244  0.39980256    -0.17600
C932        C  0.62200472  0.05265639  0.41990823    -0.19800
C933        C  0.60627903  0.02532231  0.42165385     0.20900
C934        C  0.61531427  0.00128505  0.40384981    -0.02700
C935        C  0.63928836  0.00522427  0.38362699    -0.05700
C936        C  0.65390064  0.03327873  0.38111889     0.21200
C937        C  0.64732697  0.98171113  0.36474607     0.19300
C938        C  0.63225572  0.95405688  0.36719515    -0.17200
C939        C  0.60871014  0.95008145  0.38737753    -0.19400
C940        C  0.59963655  0.97371801  0.40544560     0.20800
C941        C  0.57478986  0.97050185  0.42458549    -0.32500
C942        C  0.56507578  0.99465503  0.44191506     0.01500
C943        C  0.58128891  0.02188278  0.44043695    -0.23800
C944        C  0.67469879  0.03829177  0.35847482    -0.28400
C945        C  0.68081694  0.01581354  0.33804015     0.07200
C946        C  0.66840835  0.98705107  0.34229690    -0.27000
H947        H  0.65658030  0.07826866  0.39825063     0.11900
H948        H  0.61555955  0.07127554  0.43359472     0.13000
H949        H  0.63807486  0.93573228  0.35290967     0.12100
H950        H  0.59708048  0.92869934  0.38835500     0.11400
H951        H  0.56272876  0.94934652  0.42564253     0.16700
H952        H  0.57444851  0.04053082  0.45393359     0.12700
H953        H  0.68356809  0.06067194  0.35484567     0.15500
H954        H  0.67231455  0.96993068  0.32614055     0.15300
C955        C  0.36336418  0.93635586  0.42108714    -0.17600
C956        C  0.33971948  0.93466331  0.40083458    -0.19800
C957        C  0.33187794  0.95977394  0.38395279     0.20900
C958        C  0.34664942  0.98739760  0.38879564    -0.02700
C959        C  0.37065039  0.98907616  0.40921249    -0.05700
C960        C  0.37955260  0.96316701  0.42473716     0.21200
C961        C  0.38685574  0.01614096  0.41285358     0.19300
C962        C  0.37783862  0.04165332  0.39698172    -0.17200
C963        C  0.35428195  0.03989561  0.37646865    -0.19400
C964        C  0.33917010  0.01264914  0.37160440     0.20800
C965        C  0.31910144  0.00934282  0.34803956    -0.32500
C966        C  0.30745681  0.98092900  0.34109953     0.01500
C967        C  0.31194533  0.95690347  0.36039500    -0.23800
C968        C  0.40523625  0.96409818  0.44277853    -0.28400
C969        C  0.42238772  0.99055036  0.44571984     0.07200
C970        C  0.41247664  0.01681840  0.43138216    -0.27000
H971        H  0.36974902  0.91635994  0.43312641     0.11900
H972        H  0.32850642  0.91334527  0.39746233     0.13000
H973        H  0.38977292  0.06269789  0.39963775     0.12100
H974        H  0.34874736  0.05955359  0.36357287     0.11400
H975        H  0.31608185  0.02773983  0.33284000     0.16700
H976        H  0.30333905  0.93491844  0.35474118     0.12700
H977        H  0.41213925  0.94392071  0.45429612     0.15500
H978        H  0.42525898  0.03741426  0.43384531     0.15300
C979        C  0.63896813  0.62902095  0.02623811    -0.17600
C980        C  0.61378241  0.61010035  0.03030943    -0.19800
C981        C  0.60461683  0.59027826  0.00845604     0.20900
C982        C  0.62178579  0.58870688  0.98270545    -0.02700
C983        C  0.64763933  0.60732289  0.97887289    -0.05700
C984        C  0.65578190  0.62821069  0.00039331     0.21200
C985        C  0.66424663  0.60622434  0.95279003     0.19300
C986        C  0.65565360  0.58582884  0.93126620    -0.17200
C987        C  0.62998598  0.56760687  0.93496610    -0.19400
C988        C  0.61253719  0.56929108  0.96033741     0.20800
C989        C  0.58581028  0.55221064  0.96352469    -0.32500
C990        C  0.56846291  0.55366157  0.98906276     0.01500
C991        C  0.57834612  0.57240044  0.01165485    -0.23800
C992        C  0.67888508  0.64943536  0.99468284    -0.28400
C993        C  0.69350595  0.65016039  0.96758088     0.07200
C994        C  0.68746553  0.62720210  0.94763231    -0.27000
H995        H  0.64483231  0.64482698  0.04304745     0.11900
H996        H  0.60097300  0.61154784  0.05028248     0.13000
H997        H  0.66817972  0.58469562  0.91111200     0.12100
H998        H  0.62341899  0.55261152  0.91769821     0.11400
H999        H  0.57877564  0.53734527  0.94629374     0.16700
H1000       H  0.56527049  0.57345211  0.03151230     0.12700
H1001       H  0.68292516  0.66740129  0.00990525     0.15500
H1002       H  0.69831271  0.62797118  0.92657121     0.15300
C1003       C  0.63168236  0.39513082  0.90466060    -0.17600
C1004       C  0.60767262  0.41366073  0.91338234    -0.19800
C1005       C  0.59913572  0.41488004  0.94257155     0.20900
C1006       C  0.61566492  0.39826037  0.96342144    -0.02700
C1007       C  0.63992132  0.37942957  0.95458385    -0.05700
C1008       C  0.64744331  0.37744375  0.92498033     0.21200
C1009       C  0.65547866  0.36139325  0.97508317     0.19300
C1010       C  0.64769677  0.36367649  0.00446227    -0.17200
C1011       C  0.62390345  0.38271857  0.01328736    -0.19400
C1012       C  0.60726507  0.39964095  0.99287088     0.20800
C1013       C  0.58208333  0.41746814  0.00118221    -0.32500
C1014       C  0.56498127  0.43340754  0.98023700     0.01500
C1015       C  0.57398693  0.43208733  0.95106740    -0.23800
C1016       C  0.66891192  0.35618301  0.91588620    -0.28400
C1017       C  0.68222226  0.33609694  0.93576382     0.07200
C1018       C  0.67681588  0.33989131  0.96553533    -0.27000
H1019       H  0.63724913  0.39387950  0.88187402     0.11900
H1020       H  0.59532091  0.42654589  0.89717990     0.13000
H1021       H  0.65945963  0.35011808  0.02054223     0.12100
H1022       H  0.61800274  0.38361212  0.03600994     0.11400
H1023       H  0.57560553  0.41863114  0.02375892     0.16700
H1024       H  0.56149209  0.44471526  0.93476011     0.12700
H1025       H  0.67310601  0.35329565  0.89295527     0.15500
H1026       H  0.68677532  0.32423148  0.98093766     0.15300
C1027       C  0.35522421  0.59657280  0.08343161    -0.17600
C1028       C  0.37874318  0.57648017  0.07682856    -0.19800
C1029       C  0.39041089  0.57495420  0.04865274     0.20900
C1030       C  0.37717945  0.59269393  0.02652171    -0.02700
C1031       C  0.35347866  0.61313126  0.03321178    -0.05700
C1032       C  0.34308936  0.61555470  0.06195923     0.21200
C1033       C  0.34168411  0.63252943  0.01160323     0.19300
C1034       C  0.35219192  0.62969236  0.98306167    -0.17200
C1035       C  0.37530988  0.60901748  0.97630867    -0.19400
C1036       C  0.38859543  0.59105459  0.99805628     0.20800
C1037       C  0.41365576  0.57219169  0.99208834    -0.32500
C1038       C  0.42782707  0.55546959  0.01439853     0.01500
C1039       C  0.41562472  0.55662780  0.04247316    -0.23800
C1040       C  0.32283930  0.63865919  0.06930512    -0.28400
C1041       C  0.31396691  0.66028575  0.04866945     0.07200
C1042       C  0.32172672  0.65599812  0.01946714    -0.27000
H1043       H  0.34740129  0.59813183  0.10558343     0.11900
H1044       H  0.38843263  0.56274645  0.09398761     0.13000
H1045       H  0.34327640  0.64419023  0.96612190     0.12100
H1046       H  0.38353853  0.60783816  0.95426583     0.11400
H1047       H  0.42253627  0.57106323  0.97025970     0.16700
H1048       H  0.42580491  0.54324431  0.05964984     0.12700
H1049       H  0.31687673  0.64198591  0.09181748     0.15500
H1050       H  0.31517945  0.67278449  0.00353625     0.15300
C1051       C  0.34494580  0.36521846  0.98633648    -0.17600
C1052       C  0.36979802  0.38320224  0.97826795    -0.19800
C1053       C  0.38304118  0.40305733  0.99813224     0.20900
C1054       C  0.36998258  0.40585905  0.02592003    -0.02700
C1055       C  0.34453690  0.38819257  0.03384788    -0.05700
C1056       C  0.33259757  0.36700899  0.01431205     0.21200
C1057       C  0.33237294  0.39035251  0.06201578     0.19300
C1058       C  0.34465167  0.41107329  0.08150043    -0.17200
C1059       C  0.36991427  0.42835278  0.07374292    -0.19400
C1060       C  0.38317023  0.42533534  0.04630820     0.20800
C1061       C  0.40986102  0.44090713  0.03927277    -0.32500
C1062       C  0.42356439  0.43785932  0.01193794     0.01500
C1063       C  0.40954577  0.41950609  0.99110444    -0.23800
C1064       C  0.31046722  0.34637035  0.02395996    -0.28400
C1065       C  0.30074341  0.34655963  0.05297349     0.07200
C1066       C  0.31007249  0.36996733  0.07111748    -0.27000
H1067       H  0.33600764  0.34922263  0.97096961     0.11900
H1068       H  0.37929281  0.38085277  0.95677674     0.13000
H1069       H  0.33550522  0.41304042  0.10317021     0.12100
H1070       H  0.37960958  0.44349769  0.08950490     0.11400
H1071       H  0.41997853  0.45564288  0.05518982     0.16700
H1072       H  0.41972410  0.41736859  0.96986374     0.12700
H1073       H  0.30357586  0.32816701  0.00997132     0.15500
H1074       H  0.30264947  0.37006258  0.09348749     0.15300
loop_ 
_geom_bond_atom_site_label_1 
_geom_bond_atom_site_label_2 
_geom_bond_distance 
_geom_bond_site_symmetry_2 
_ccdc_geom_bond_type 
O1           Cu9   2.018       .  S
O1           C11   1.281       .  A
O2           Cu9   2.033       .  S
O2           C12   1.280   1_554  A
O3           Cu9   2.011       .  S
O3           C13   1.277   1_554  A
O4           Cu9   2.002       .  S
O4           C14   1.278       .  A
O5          Cu10   2.036       .  S
O5           C14   1.280   1_556  A
O6          Cu10   2.035       .  S
O6           C13   1.282       .  A
O7          Cu10   1.993       .  S
O7           C12   1.277       .  A
O8          Cu10   2.007       .  S
O8           C11   1.277   1_556  A
Cu9         Cu10   2.368   1_554  S
C11        C1038   1.484       .  S
C12        C1014   1.486       .  S
C13         C990   1.487       .  S
C14        C1062   1.485       .  S
O15         Cu23   2.033       .  S
O15          C25   1.280   1_545  A
O16         Cu23   2.030       .  S
O16          C26   1.281   1_545  A
O17         Cu23   2.020       .  S
O17          C27   1.280   1_545  A
O18         Cu23   2.016       .  S
O18          C28   1.279   1_545  A
O19         Cu24   2.029       .  S
O19          C28   1.281       .  A
O20         Cu24   2.033       .  S
O20          C27   1.281       .  A
O21         Cu24   2.003       .  S
O21          C26   1.277       .  A
O22         Cu24   1.999       .  S
O22          C25   1.278       .  A
Cu23        Cu24   2.367   1_545  S
C25         C969   1.486       .  S
C26         C897   1.486       .  S
C27         C942   1.494       .  S
C28         C918   1.491       .  S
O29         Cu37   1.996       .  S
O29          C39   1.277       .  A
O30         Cu37   2.006       .  S
O30          C40   1.278       .  A
O31         Cu37   2.028       .  S
O31          C41   1.280   1_455  A
O32         Cu37   2.027       .  S
O32          C42   1.281       .  A
O33         Cu38   2.038       .  S
O33          C42   1.281   1_655  A
O34         Cu38   2.035       .  S
O34          C41   1.282       .  A
O35         Cu38   2.046       .  S
O35          C40   1.282   1_655  A
O36         Cu38   2.053       .  S
O36          C39   1.283   1_655  A
Cu37        Cu38   2.365   1_455  S
C39         C846   1.492       .  S
C40         C822   1.494       .  S
C41         C870   1.496       .  S
C42         C801   1.498       .  S
N43          C47   1.360       .  A
N43          C44   1.359       .  A
N43         C774   1.449       .  S
C44        C1065   1.481       .  S
C44          C45   1.387       .  A
C45          C46   1.370       .  A
C45          H48   1.083       .  S
C46          C47   1.376       .  A
C46          H49   1.082       .  S
C47         C753   1.466       .  S
N50          C54   1.362       .  A
N50          C51   1.362       .  A
N50         C726   1.449       .  S
C51        C1041   1.481       .  S
C51          C52   1.385       .  A
C52          C53   1.367       .  A
C52          H55   1.083       .  S
C53          C54   1.377       .  A
C53          H56   1.082       .  S
C54         C705   1.470       .  S
N57          C61   1.363       .  A
N57          C58   1.366       .  A
N57         C678   1.448       .  S
C58         C921   1.483       .  S
C58          C59   1.385       .  A
C59          C60   1.365       .  A
C59          H62   1.083       .  S
C60          C61   1.376       .  A
C60          H63   1.082       .  S
C61         C654   1.473       .  S
O64         Cu72   2.028       .  S
O64          C74   1.280       .  A
O65         Cu72   2.022   1_565  S
O65          C75   1.279       .  A
O66         Cu72   2.010       .  S
O66          C76   1.278       .  A
O67         Cu72   2.033   1_556  S
O67          C77   1.279       .  A
O68         Cu73   1.984       .  S
O68          C77   1.276       .  A
O69         Cu73   1.993   1_554  S
O69          C76   1.277       .  A
O70         Cu73   1.987   1_564  S
O70          C75   1.276       .  A
O71         Cu73   1.973       .  S
O71          C74   1.274   1_556  A
Cu72        Cu73   2.374   1_554  S
C74         C750   1.470       .  S
C75         C702   1.478       .  S
C76         C630   1.472       .  S
C77         C657   1.472       .  S
N78          C82   1.366       .  A
N78          C79   1.363       .  A
N78         C606   1.454       .  S
C79         C966   1.473       .  S
C79          C80   1.381       .  A
C80          C81   1.363       .  A
C80          H83   1.083       .  S
C81          C82   1.380       .  A
C81          H84   1.083       .  S
C82         C633   1.473       .  S
N85          C89   1.358       .  A
N85          C86   1.356       .  A
N85         C558   1.443       .  S
C86        C1017   1.481       .  S
C86          C87   1.386       .  A
C87          C88   1.372       .  A
C87          H90   1.082       .  S
C88          C89   1.378       .  A
C88          H91   1.082       .  S
C89         C585   1.470       .  S
N92          C96   1.370       .  A
N92          C93   1.369       .  A
N92         C537   1.459       .  S
C93         C825   1.489       .  S
C93          C94   1.382       .  A
C94          C95   1.363       .  A
C94          H97   1.083       .  S
C95          C96   1.378       .  A
C95          H98   1.083       .  S
C96         C510   1.483       .  S
O99        Cu107   1.994   1_454  S
O99         C109   1.275       .  A
O100       Cu107   1.995       .  S
O100        C110   1.275       .  A
O101       Cu107   2.047   1_554  S
O101        C111   1.283       .  A
O102       Cu107   2.046       .  S
O102        C112   1.283   1_655  A
O103       Cu108   2.012       .  S
O103        C112   1.277   1_655  A
O104       Cu108   2.010   1_554  S
O104        C111   1.277       .  A
O105       Cu108   2.027       .  S
O105        C110   1.281       .  A
O106       Cu108   2.034   1_454  S
O106        C109   1.281       .  A
Cu107      Cu108   2.371       .  S
C109        C777   1.480       .  S
C110        C561   1.475       .  S
C111        C486   1.487       .  S
C112        C513   1.491       .  S
N113        C117   1.372       .  A
N113        C114   1.371       .  A
N113        C465   1.459       .  S
C114        C873   1.487       .  S
C114        C115   1.381       .  A
C115        C116   1.362       .  A
C115        H118   1.083       .  S
C116        C117   1.379       .  A
C116        H119   1.083       .  S
C117        C489   1.484       .  S
N120        C124   1.368       .  A
N120        C121   1.368       .  A
N120        C417   1.461       .  S
C121        C849   1.481       .  S
C121        C122   1.382       .  A
C122        C123   1.360       .  A
C122        H125   1.083       .  S
C123        C124   1.378       .  A
C123        H126   1.083       .  S
C124        C438   1.473       .  S
N127        C131   1.367       .  A
N127        C128   1.366       .  A
N127        C369   1.451       .  S
C128        C945   1.482       .  S
C128        C129   1.381       .  A
C129        C130   1.366       .  A
C129        H132   1.083       .  S
C130        C131   1.380       .  A
C130        H133   1.082       .  S
C131        C393   1.482       .  S
O134       Cu142   2.048   1_565  S
O134        C144   1.283       .  A
O135       Cu142   2.055       .  S
O135        C145   1.283       .  A
O136       Cu142   2.034       .  S
O136        C146   1.280       .  A
O137       Cu142   2.030   1_455  S
O137        C147   1.280       .  A
O138       Cu143   2.016   1_455  S
O138        C147   1.278       .  A
O139       Cu143   2.018       .  S
O139        C146   1.279       .  A
O140       Cu143   2.026       .  S
O140        C145   1.280       .  A
O141       Cu143   2.021   1_565  S
O141        C144   1.279       .  A
Cu142      Cu143   2.368       .  S
C144        C414   1.496       .  S
C145        C462   1.499       .  S
C146        C366   1.487       .  S
C147        C609   1.486       .  S
N148        C152   1.363       .  A
N148        C149   1.365       .  A
N148        C318   1.449       .  S
C149        C993   1.485       .  S
C149        C150   1.384       .  A
C150        C151   1.366       .  A
C150        H153   1.083       .  S
C151        C152   1.377       .  A
C151        H154   1.082       .  S
C152        C342   1.474       .  S
N155        C159   1.369       .  A
N155        C156   1.371       .  A
N155        C294   1.462       .  S
C156        C798   1.488       .  S
C156        C157   1.383       .  A
C157        C158   1.361       .  A
C157        H160   1.083       .  S
C158        C159   1.377       .  A
C158        H161   1.083       .  S
C159        C270   1.476       .  S
N162        C166   1.361       .  A
N162        C163   1.362       .  A
N162        C225   1.448       .  S
C163        C894   1.476       .  S
C163        C164   1.382       .  A
C164        C165   1.368       .  A
C164        H167   1.083       .  S
C165        C166   1.379       .  A
C165        H168   1.082       .  S
C166        C249   1.475       .  S
O169       Cu177   2.059   1_554  S
O169        C179   1.284       .  A
O170       Cu177   2.041       .  S
O170        C180   1.281       .  A
O171       Cu177   2.026   1_545  S
O171        C181   1.279       .  A
O172       Cu177   2.032   1_554  S
O172        C182   1.280   1_554  A
O173       Cu178   1.990       .  S
O173        C182   1.277       .  A
O174       Cu178   1.989   1_545  S
O174        C181   1.276       .  A
O175       Cu178   1.984   1_545  S
O175        C180   1.276   1_545  A
O176       Cu178   1.981   1_554  S
O176        C179   1.274       .  A
Cu177      Cu178   2.370       .  S
C179        C390   1.484       .  S
C180        C246   1.481   1_565  S
C181        C582   1.474       .  S
C182        C345   1.481       .  S
O183       Cu191   2.033       .  S
O183        C193   1.281       .  A
O184       Cu191   2.023   1_455  S
O184        C194   1.279       .  A
O185       Cu191   2.032   1_565  S
O185        C195   1.280       .  A
O186       Cu191   2.046       .  S
O186        C196   1.282       .  A
O187       Cu192   2.022       .  S
O187        C196   1.280       .  A
O188       Cu192   2.040   1_565  S
O188        C195   1.282       .  A
O189       Cu192   2.024   1_455  S
O189        C194   1.279       .  A
O190       Cu192   2.013       .  S
O190        C193   1.278       .  A
Cu191      Cu192   2.369       .  S
C193        C222   1.483       .  S
C194        C681   1.482       .  S
C195        C297   1.497       .  S
C196        C534   1.495       .  S
O197       Cu205   1.996   1_554  S
O197        C207   1.276       .  A
O198       Cu205   1.985   1_655  S
O198        C208   1.274       .  A
O199       Cu205   2.042       .  S
O199        C209   1.282       .  A
O200       Cu205   2.039   1_554  S
O200        C210   1.282       .  A
O201       Cu206   1.983   1_554  S
O201        C210   1.273       .  A
O202       Cu206   1.988       .  S
O202        C209   1.274       .  A
O203       Cu206   2.058   1_655  S
O203        C208   1.284       .  A
O204       Cu206   2.046       .  S
O204        C207   1.283   1_556  A
Cu205      Cu206   2.370       .  S
C207        C729   1.486       .  S
C208        C321   1.486       .  S
C209        C273   1.479       .  S
C210        C441   1.475       .  S
C211        C212   1.401       .  A
C211        C216   1.404       .  A
C211        H227   1.084       .  S
C212        C213   1.405       .  A
C212        H228   1.083       .  S
C213        C223   1.407       .  A
C213        C214   1.412   1_545  A
C214        C220   1.412       .  A
C214        C215   1.416       .  A
C215        C217   1.411       .  A
C215        C216   1.411   1_565  A
C216        C224   1.406       .  A
C217        C226   1.406       .  A
C217        C218   1.404       .  A
C218        C219   1.401       .  A
C218        H229   1.084       .  S
C219        C220   1.404       .  A
C219        H230   1.083       .  S
C220        C221   1.407       .  A
C221        C222   1.406   1_565  A
C221        H231   1.084       .  S
C222        C223   1.408       .  A
C223        H232   1.084       .  S
C224        C225   1.409   1_545  A
C224        H233   1.083       .  S
C225        C226   1.408       .  A
C226        H234   1.084       .  S
C235        C236   1.395       .  A
C235        C240   1.402       .  A
C235        H251   1.084       .  S
C236        C237   1.402       .  A
C236        H252   1.084       .  S
C237        C247   1.396       .  A
C237        C238   1.410   1_545  A
C238        C244   1.413       .  A
C238        C239   1.412       .  A
C239        C241   1.413       .  A
C239        C240   1.412   1_565  A
C240        C248   1.397   1_545  A
C241        C250   1.409       .  A
C241        C242   1.405       .  A
C242        C243   1.403       .  A
C242        H253   1.083       .  S
C243        C244   1.405       .  A
C243        H254   1.083       .  S
C244        C245   1.411       .  A
C245        C246   1.408   1_565  A
C245        H255   1.084       .  S
C246        C247   1.406       .  A
C247        H256   1.085       .  S
C248        C249   1.402       .  A
C248        H257   1.085       .  S
C249        C250   1.405       .  A
C250        H258   1.084       .  S
C259        C260   1.399       .  A
C259        C264   1.404       .  A
C259        H275   1.084       .  S
C260        C261   1.403       .  A
C260        H276   1.083       .  S
C261        C271   1.406       .  A
C261        C262   1.414       .  A
C262        C268   1.410       .  A
C262        C263   1.414       .  A
C263        C265   1.414   1_455  A
C263        C264   1.410       .  A
C264        C272   1.401       .  A
C265        C274   1.409       .  A
C265        C266   1.404       .  A
C266        C267   1.401       .  A
C266        H277   1.083       .  S
C267        C268   1.405   1_655  A
C267        H278   1.084       .  S
C268        C269   1.404       .  A
C269        C270   1.406       .  A
C269        H279   1.085   1_455  S
C270        C271   1.403       .  A
C271        H280   1.084       .  S
C272        C273   1.407       .  A
C272        H281   1.085       .  S
C273        C274   1.405   1_455  A
C274        H282   1.084       .  S
C283        C284   1.403       .  A
C283        C288   1.405       .  A
C283        H299   1.083       .  S
C284        C285   1.406       .  A
C284        H300   1.083       .  S
C285        C295   1.412       .  A
C285        C286   1.411       .  A
C286        C292   1.410   1_455  A
C286        C287   1.420       .  A
C287        C289   1.412   1_455  A
C287        C288   1.411       .  A
C288        C296   1.411       .  A
C289        C298   1.411       .  A
C289        C290   1.405       .  A
C290        C291   1.403       .  A
C290        H301   1.083       .  S
C291        C292   1.405       .  A
C291        H302   1.084       .  S
C292        C293   1.410   1_655  A
C293        C294   1.414       .  A
C293        H303   1.080   1_455  S
C294        C295   1.415       .  A
C295        H304   1.082       .  S
C296        C297   1.411   1_455  A
C296        H305   1.084       .  S
C297        C298   1.410       .  A
C298        H306   1.084       .  S
C307        C308   1.399       .  A
C307        C312   1.404       .  A
C307        H323   1.084       .  S
C308        C309   1.403       .  A
C308        H324   1.084       .  S
C309        C319   1.406       .  A
C309        C310   1.413       .  A
C310        C316   1.409   1_556  A
C310        C311   1.416       .  A
C311        C313   1.414   1_556  A
C311        C312   1.409       .  A
C312        C320   1.402       .  A
C313        C322   1.412       .  A
C313        C314   1.405       .  A
C314        C315   1.403       .  A
C314        H325   1.083       .  S
C315        C316   1.406       .  A
C315        H326   1.084       .  S
C316        C317   1.407       .  A
C317        C318   1.411   1_554  A
C317        H327   1.083       .  S
C318        C319   1.407       .  A
C319        H328   1.084       .  S
C320        C321   1.409       .  A
C320        H329   1.085       .  S
C321        C322   1.408   1_556  A
C322        H330   1.084       .  S
C331        C332   1.404       .  A
C331        C336   1.406       .  A
C331        H347   1.083       .  S
C332        C333   1.405       .  A
C332        H348   1.083       .  S
C333        C343   1.409       .  A
C333        C334   1.413       .  A
C334        C340   1.412       .  A
C334        C335   1.412       .  A
C335        C337   1.411   1_556  A
C335        C336   1.412       .  A
C336        C344   1.410       .  A
C337        C346   1.396       .  A
C337        C338   1.402       .  A
C338        C339   1.394       .  A
C338        H349   1.084       .  S
C339        C340   1.401   1_554  A
C339        H350   1.084       .  S
C340        C341   1.395       .  A
C341        C342   1.400       .  A
C341        H351   1.085       .  S
C342        C343   1.406       .  A
C343        H352   1.084       .  S
C344        C345   1.409       .  A
C344        H353   1.084       .  S
C345        C346   1.405   1_556  A
C346        H354   1.085       .  S
C355        C356   1.403       .  A
C355        C360   1.405       .  A
C355        H371   1.083       .  S
C356        C357   1.405       .  A
C356        H372   1.083       .  S
C357        C367   1.411       .  A
C357        C358   1.413   1_545  A
C358        C364   1.411       .  A
C358        C359   1.417   1_565  A
C359        C361   1.411   1_545  A
C359        C360   1.411       .  A
C360        C368   1.409       .  A
C361        C370   1.406       .  A
C361        C362   1.404       .  A
C362        C363   1.400       .  A
C362        H373   1.084       .  S
C363        C364   1.404       .  A
C363        H374   1.083       .  S
C364        C365   1.405       .  A
C365        C366   1.407   1_565  A
C365        H375   1.084       .  S
C366        C367   1.409       .  A
C367        H376   1.084       .  S
C368        C369   1.411       .  A
C368        H377   1.083       .  S
C369        C370   1.409   1_545  A
C370        H378   1.082       .  S
C379        C380   1.405       .  A
C379        C384   1.405       .  A
C379        H395   1.083       .  S
C380        C381   1.406       .  A
C380        H396   1.083       .  S
C381        C391   1.414       .  A
C381        C382   1.413       .  A
C382        C388   1.410   1_545  A
C382        C383   1.415       .  A
C383        C385   1.411   1_545  A
C383        C384   1.413       .  A
C384        C392   1.413       .  A
C385        C394   1.399       .  A
C385        C386   1.402       .  A
C386        C387   1.396       .  A
C386        H397   1.084       .  S
C387        C388   1.403       .  A
C387        H398   1.084       .  S
C388        C389   1.399       .  A
C389        C390   1.406       .  A
C389        H399   1.085       .  S
C390        C391   1.409   1_565  A
C391        H400   1.084       .  S
C392        C393   1.407       .  A
C392        H401   1.084       .  S
C393        C394   1.404   1_545  A
C394        H402   1.085       .  S
C403        C404   1.404       .  A
C403        C408   1.406       .  A
C403        H419   1.084       .  S
C404        C405   1.405       .  A
C404        H420   1.083       .  S
C405        C415   1.413       .  A
C405        C406   1.412       .  A
C406        C412   1.411   1_455  A
C406        C407   1.420       .  A
C407        C409   1.410   1_455  A
C407        C408   1.410       .  A
C408        C416   1.411       .  A
C409        C418   1.409       .  A
C409        C410   1.405       .  A
C410        C411   1.402       .  A
C410        H421   1.084       .  S
C411        C412   1.405       .  A
C411        H422   1.083       .  S
C412        C413   1.408       .  A
C413        C414   1.411       .  A
C413        H423   1.084       .  S
C414        C415   1.411   1_655  A
C415        H424   1.084       .  S
C416        C417   1.415       .  A
C416        H425   1.082       .  S
C417        C418   1.413   1_455  A
C418        H426   1.079       .  S
C427        C428   1.399       .  A
C427        C432   1.403       .  A
C427        H443   1.083       .  S
C428        C429   1.404       .  A
C428        H444   1.084       .  S
C429        C439   1.401       .  A
C429        C430   1.410   1_655  A
C430        C436   1.415       .  A
C430        C431   1.412       .  A
C431        C433   1.410       .  A
C431        C432   1.414   1_455  A
C432        C440   1.406       .  A
C433        C442   1.401       .  A
C433        C434   1.404       .  A
C434        C435   1.399       .  A
C434        H445   1.084       .  S
C435        C436   1.403       .  A
C435        H446   1.084       .  S
C436        C437   1.406       .  A
C437        C438   1.402       .  A
C437        H447   1.084       .  S
C438        C439   1.405   1_455  A
C439        H448   1.085       .  S
C440        C441   1.404   1_655  A
C440        H449   1.084       .  S
C441        C442   1.407       .  A
C442        H450   1.085       .  S
C451        C452   1.402       .  A
C451        C456   1.405       .  A
C451        H467   1.083       .  S
C452        C453   1.405       .  A
C452        H468   1.083       .  S
C453        C463   1.409       .  A
C453        C454   1.410   1_455  A
C454        C460   1.413       .  A
C454        C455   1.422       .  A
C455        C457   1.410       .  A
C455        C456   1.412   1_655  A
C456        C464   1.412       .  A
C457        C466   1.413       .  A
C457        C458   1.407       .  A
C458        C459   1.405       .  A
C458        H469   1.083       .  S
C459        C460   1.406       .  A
C459        H470   1.083       .  S
C460        C461   1.416       .  A
C461        C462   1.412       .  A
C461        H471   1.084       .  S
C462        C463   1.411   1_655  A
C463        H472   1.084       .  S
C464        C465   1.411   1_455  A
C464        H473   1.082       .  S
C465        C466   1.415       .  A
C466        H474   1.083       .  S
C475        C476   1.400       .  A
C475        C480   1.404   1_455  A
C475        H491   1.084       .  S
C476        C477   1.404   1_455  A
C476        H492   1.083       .  S
C477        C487   1.409       .  A
C477        C478   1.413       .  A
C478        C484   1.411       .  A
C478        C479   1.418       .  A
C479        C481   1.414       .  A
C479        C480   1.410       .  A
C480        C488   1.405       .  A
C481        C490   1.412       .  A
C481        C482   1.405       .  A
C482        C483   1.403       .  A
C482        H493   1.083       .  S
C483        C484   1.406       .  A
C483        H494   1.083       .  S
C484        C485   1.409       .  A
C485        C486   1.410       .  A
C485        H495   1.084       .  S
C486        C487   1.406       .  A
C487        H496   1.084   1_655  S
C488        C489   1.407       .  A
C488        H497   1.085   1_655  S
C489        C490   1.407       .  A
C490        H498   1.084       .  S
C499        C500   1.401       .  A
C499        C504   1.404       .  A
C499        H515   1.083       .  S
C500        C501   1.404   1_655  A
C500        H516   1.084       .  S
C501        C511   1.405       .  A
C501        C502   1.410       .  A
C502        C508   1.414       .  A
C502        C503   1.417       .  A
C503        C505   1.410       .  A
C503        C504   1.413   1_455  A
C504        C512   1.409       .  A
C505        C514   1.408       .  A
C505        C506   1.406       .  A
C506        C507   1.402       .  A
C506        H517   1.083       .  S
C507        C508   1.404       .  A
C507        H518   1.083       .  S
C508        C509   1.411       .  A
C509        C510   1.406       .  A
C509        H519   1.084       .  S
C510        C511   1.407       .  A
C511        H520   1.085   1_455  S
C512        C513   1.408   1_655  A
C512        H521   1.084       .  S
C513        C514   1.411       .  A
C514        H522   1.084       .  S
C523        C524   1.403       .  A
C523        C528   1.406       .  A
C523        H539   1.083       .  S
C524        C525   1.405       .  A
C524        H540   1.083       .  S
C525        C535   1.412       .  A
C525        C526   1.412   1_455  A
C526        C532   1.411       .  A
C526        C527   1.419       .  A
C527        C529   1.411       .  A
C527        C528   1.410   1_655  A
C528        C536   1.410       .  A
C529        C538   1.409       .  A
C529        C530   1.404       .  A
C530        C531   1.402       .  A
C530        H541   1.084       .  S
C531        C532   1.405       .  A
C531        H542   1.083       .  S
C532        C533   1.408       .  A
C533        C534   1.410       .  A
C533        H543   1.084       .  S
C534        C535   1.410   1_655  A
C535        H544   1.084       .  S
C536        C537   1.416       .  A
C536        H545   1.083       .  S
C537        C538   1.411   1_455  A
C538        H546   1.081       .  S
C547        C548   1.398       .  A
C547        C552   1.403   1_554  A
C547        H563   1.083       .  S
C548        C549   1.403   1_554  A
C548        H564   1.084       .  S
C549        C559   1.400       .  A
C549        C550   1.410       .  A
C550        C556   1.412       .  A
C550        C551   1.412       .  A
C551        C553   1.411       .  A
C551        C552   1.413       .  A
C552        C560   1.403       .  A
C553        C562   1.404       .  A
C553        C554   1.405       .  A
C554        C555   1.401       .  A
C554        H565   1.084       .  S
C555        C556   1.404       .  A
C555        H566   1.083       .  S
C556        C557   1.405       .  A
C557        C558   1.407       .  A
C557        H567   1.084       .  S
C558        C559   1.405       .  A
C559        H568   1.082       .  S
C560        C561   1.403       .  A
C560        H569   1.084   1_556  S
C561        C562   1.408       .  A
C562        H570   1.084       .  S
C571        C572   1.395   1_556  A
C571        C576   1.401       .  A
C571        H587   1.084   1_556  S
C572        C573   1.402   1_554  A
C572        H588   1.084       .  S
C573        C583   1.397   1_556  A
C573        C574   1.411       .  A
C574        C580   1.412       .  A
C574        C575   1.411       .  A
C575        C577   1.414       .  A
C575        C576   1.411       .  A
C576        C584   1.396       .  A
C577        C586   1.408       .  A
C577        C578   1.404       .  A
C578        C579   1.402       .  A
C578        H589   1.083       .  S
C579        C580   1.405       .  A
C579        H590   1.083       .  S
C580        C581   1.408       .  A
C581        C582   1.408       .  A
C581        H591   1.084       .  S
C582        C583   1.403   1_556  A
C583        H592   1.085       .  S
C584        C585   1.400       .  A
C584        H593   1.085       .  S
C585        C586   1.404       .  A
C586        H594   1.084       .  S
C595        C596   1.401       .  A
C595        C600   1.404       .  A
C595        H611   1.083       .  S
C596        C597   1.404       .  A
C596        H612   1.084       .  S
C597        C607   1.406       .  A
C597        C598   1.410   1_565  A
C598        C604   1.410       .  A
C598        C599   1.416       .  A
C599        C601   1.411       .  A
C599        C600   1.412   1_545  A
C600        C608   1.407       .  A
C601        C610   1.407       .  A
C601        C602   1.405       .  A
C602        C603   1.401       .  A
C602        H613   1.083       .  S
C603        C604   1.404       .  A
C603        H614   1.084       .  S
C604        C605   1.406       .  A
C605        C606   1.411   1_545  A
C605        H615   1.081       .  S
C606        C607   1.411       .  A
C607        H616   1.082       .  S
C608        C609   1.408   1_565  A
C608        H617   1.084       .  S
C609        C610   1.409       .  A
C610        H618   1.084       .  S
C619        C620   1.399       .  A
C619        C624   1.403       .  A
C619        H635   1.083       .  S
C620        C621   1.404       .  A
C620        H636   1.083       .  S
C621        C631   1.402       .  A
C621        C622   1.411   1_565  A
C622        C628   1.412       .  A
C622        C623   1.409       .  A
C623        C625   1.410       .  A
C623        C624   1.414   1_545  A
C624        C632   1.404       .  A
C625        C634   1.396       .  A
C625        C626   1.403       .  A
C626        C627   1.396       .  A
C626        H637   1.084       .  S
C627        C628   1.402       .  A
C627        H638   1.084       .  S
C628        C629   1.398       .  A
C629        C630   1.405       .  A
C629        H639   1.085       .  S
C630        C631   1.405   1_545  A
C631        H640   1.084       .  S
C632        C633   1.403       .  A
C632        H641   1.084       .  S
C633        C634   1.404   1_565  A
C634        H642   1.085       .  S
C643        C644   1.395       .  A
C643        C648   1.402       .  A
C643        H659   1.084       .  S
C644        C645   1.402       .  A
C644        H660   1.084       .  S
C645        C655   1.398       .  A
C645        C646   1.412       .  A
C646        C652   1.413   1_545  A
C646        C647   1.412       .  A
C647        C649   1.414   1_545  A
C647        C648   1.411       .  A
C648        C656   1.396       .  A
C649        C658   1.410       .  A
C649        C650   1.405       .  A
C650        C651   1.403       .  A
C650        H661   1.083       .  S
C651        C652   1.405       .  A
C651        H662   1.083       .  S
C652        C653   1.408       .  A
C653        C654   1.404       .  A
C653        H663   1.084       .  S
C654        C655   1.401   1_565  A
C655        H664   1.085       .  S
C656        C657   1.403       .  A
C656        H665   1.085       .  S
C657        C658   1.406   1_545  A
C658        H666   1.084       .  S
C667        C668   1.402       .  A
C667        C672   1.405       .  A
C667        H683   1.083       .  S
C668        C669   1.404       .  A
C668        H684   1.083       .  S
C669        C679   1.410       .  A
C669        C670   1.413       .  A
C670        C676   1.410   1_565  A
C670        C671   1.416   1_565  A
C671        C673   1.413       .  A
C671        C672   1.412   1_545  A
C672        C680   1.408       .  A
C673        C682   1.407       .  A
C673        C674   1.404       .  A
C674        C675   1.400       .  A
C674        H685   1.084       .  S
C675        C676   1.404       .  A
C675        H686   1.084       .  S
C676        C677   1.404       .  A
C677        C678   1.409   1_545  A
C677        H687   1.083       .  S
C678        C679   1.408       .  A
C679        H688   1.083       .  S
C680        C681   1.407   1_565  A
C680        H689   1.084       .  S
C681        C682   1.406       .  A
C682        H690   1.084       .  S
C691        C692   1.402       .  A
C691        C696   1.404       .  A
C691        H707   1.083       .  S
C692        C693   1.405       .  A
C692        H708   1.083       .  S
C693        C703   1.407       .  A
C693        C694   1.412       .  A
C694        C700   1.411       .  A
C694        C695   1.410       .  A
C695        C697   1.411       .  A
C695        C696   1.413       .  A
C696        C704   1.407       .  A
C697        C706   1.395       .  A
C697        C698   1.401       .  A
C698        C699   1.395       .  A
C698        H709   1.084       .  S
C699        C700   1.402       .  A
C699        H710   1.084   1_554  S
C700        C701   1.396       .  A
C701        C702   1.405       .  A
C701        H711   1.084   1_554  S
C702        C703   1.408       .  A
C703        H712   1.084       .  S
C704        C705   1.404       .  A
C704        H713   1.084       .  S
C705        C706   1.400       .  A
C706        H714   1.085       .  S
C715        C716   1.399       .  A
C715        C720   1.404       .  A
C715        H731   1.084       .  S
C716        C717   1.403       .  A
C716        H732   1.084       .  S
C717        C727   1.405       .  A
C717        C718   1.412       .  A
C718        C724   1.409       .  A
C718        C719   1.415       .  A
C719        C721   1.413   1_554  A
C719        C720   1.410       .  A
C720        C728   1.402       .  A
C721        C730   1.410       .  A
C721        C722   1.405       .  A
C722        C723   1.402       .  A
C722        H733   1.083       .  S
C723        C724   1.405   1_556  A
C723        H734   1.084       .  S
C724        C725   1.406       .  A
C725        C726   1.410       .  A
C725        H735   1.082       .  S
C726        C727   1.407       .  A
C727        H736   1.083       .  S
C728        C729   1.409       .  A
C728        H737   1.084       .  S
C729        C730   1.408   1_554  A
C730        H738   1.084       .  S
C739        C740   1.401       .  A
C739        C744   1.403       .  A
C739        H755   1.083       .  S
C740        C741   1.404       .  A
C740        H756   1.083       .  S
C741        C751   1.405       .  A
C741        C742   1.412       .  A
C742        C748   1.411       .  A
C742        C743   1.409       .  A
C743        C745   1.412       .  A
C743        C744   1.414       .  A
C744        C752   1.405       .  A
C745        C754   1.396       .  A
C745        C746   1.401       .  A
C746        C747   1.395   1_554  A
C746        H757   1.084   1_554  S
C747        C748   1.402   1_556  A
C747        H758   1.084       .  S
C748        C749   1.397   1_554  A
C749        C750   1.404   1_556  A
C749        H759   1.085       .  S
C750        C751   1.405       .  A
C751        H760   1.084       .  S
C752        C753   1.402       .  A
C752        H761   1.084       .  S
C753        C754   1.400       .  A
C754        H762   1.085       .  S
C763        C764   1.400       .  A
C763        C768   1.404   1_556  A
C763        H779   1.083       .  S
C764        C765   1.405   1_556  A
C764        H780   1.084       .  S
C765        C775   1.402       .  A
C765        C766   1.409       .  A
C766        C772   1.412       .  A
C766        C767   1.413       .  A
C767        C769   1.410       .  A
C767        C768   1.414       .  A
C768        C776   1.407   1_554  A
C769        C778   1.402       .  A
C769        C770   1.404       .  A
C770        C771   1.400       .  A
C770        H781   1.084       .  S
C771        C772   1.403       .  A
C771        H782   1.083       .  S
C772        C773   1.406       .  A
C773        C774   1.408       .  A
C773        H783   1.084       .  S
C774        C775   1.409       .  A
C775        H784   1.079       .  S
C776        C777   1.405   1_556  A
C776        H785   1.084       .  S
C777        C778   1.408       .  A
C778        H786   1.084       .  S
C787        C788   1.400       .  A
C787        C792   1.404       .  A
C787        H803   1.084       .  S
C788        C789   1.404       .  A
C788        H804   1.084       .  S
C789        C799   1.405       .  A
C789        C790   1.411       .  A
C790        C796   1.413   1_455  A
C790        C791   1.419       .  A
C791        C793   1.412   1_455  A
C791        C792   1.411       .  A
C792        C800   1.406       .  A
C793        C802   1.414       .  A
C793        C794   1.406       .  A
C794        C795   1.405       .  A
C794        H805   1.083       .  S
C795        C796   1.405       .  A
C795        H806   1.083       .  S
C796        C797   1.414   1_655  A
C797        C798   1.409       .  A
C797        H807   1.084   1_455  S
C798        C799   1.409       .  A
C799        H808   1.085       .  S
C800        C801   1.410       .  A
C800        H809   1.084       .  S
C801        C802   1.413   1_455  A
C802        H810   1.084       .  S
C811        C812   1.404       .  A
C811        C816   1.406       .  A
C811        H827   1.083       .  S
C812        C813   1.406       .  A
C812        H828   1.083       .  S
C813        C823   1.414       .  A
C813        C814   1.413   1_655  A
C814        C820   1.410       .  A
C814        C815   1.418       .  A
C815        C817   1.411       .  A
C815        C816   1.412   1_455  A
C816        C824   1.413   1_655  A
C817        C826   1.404       .  A
C817        C818   1.404       .  A
C818        C819   1.399       .  A
C818        H829   1.084       .  S
C819        C820   1.404       .  A
C819        H830   1.084       .  S
C820        C821   1.404       .  A
C821        C822   1.410       .  A
C821        H831   1.084       .  S
C822        C823   1.411   1_455  A
C823        H832   1.084       .  S
C824        C825   1.409       .  A
C824        H833   1.084   1_455  S
C825        C826   1.408       .  A
C826        H834   1.085       .  S
C835        C836   1.397       .  A
C835        C840   1.402       .  A
C835        H851   1.084       .  S
C836        C837   1.403       .  A
C836        H852   1.084       .  S
C837        C847   1.400       .  A
C837        C838   1.409       .  A
C838        C844   1.414   1_455  A
C838        C839   1.417       .  A
C839        C841   1.411   1_455  A
C839        C840   1.412       .  A
C840        C848   1.402       .  A
C841        C850   1.412       .  A
C841        C842   1.406       .  A
C842        C843   1.405       .  A
C842        H853   1.083       .  S
C843        C844   1.406       .  A
C843        H854   1.083       .  S
C844        C845   1.415       .  A
C845        C846   1.411   1_655  A
C845        H855   1.084       .  S
C846        C847   1.409       .  A
C847        H856   1.084       .  S
C848        C849   1.405       .  A
C848        H857   1.085       .  S
C849        C850   1.409   1_455  A
C850        H858   1.084       .  S
C859        C860   1.404       .  A
C859        C864   1.406       .  A
C859        H875   1.083       .  S
C860        C861   1.406       .  A
C860        H876   1.083       .  S
C861        C871   1.412       .  A
C861        C862   1.411   1_455  A
C862        C868   1.412       .  A
C862        C863   1.420       .  A
C863        C865   1.411       .  A
C863        C864   1.412   1_655  A
C864        C872   1.414       .  A
C865        C874   1.407       .  A
C865        C866   1.404       .  A
C866        C867   1.401       .  A
C866        H877   1.083       .  S
C867        C868   1.404       .  A
C867        H878   1.083       .  S
C868        C869   1.408       .  A
C869        C870   1.410       .  A
C869        H879   1.084       .  S
C870        C871   1.412   1_655  A
C871        H880   1.084       .  S
C872        C873   1.410   1_455  A
C872        H881   1.084       .  S
C873        C874   1.408       .  A
C874        H882   1.085       .  S
C883        C884   1.400       .  A
C883        C888   1.404       .  A
C883        H899   1.084       .  S
C884        C885   1.404       .  A
C884        H900   1.084       .  S
C885        C895   1.406       .  A
C885        C886   1.412       .  A
C886        C892   1.412       .  A
C886        C887   1.415       .  A
C887        C889   1.412       .  A
C887        C888   1.411       .  A
C888        C896   1.405       .  A
C889        C898   1.406   1_565  A
C889        C890   1.403   1_565  A
C890        C891   1.400       .  A
C890        H901   1.083       .  S
C891        C892   1.404   1_545  A
C891        H902   1.083       .  S
C892        C893   1.405       .  A
C893        C894   1.405       .  A
C893        H903   1.085   1_565  S
C894        C895   1.406       .  A
C895        H904   1.084       .  S
C896        C897   1.410       .  A
C896        H905   1.084       .  S
C897        C898   1.407   1_565  A
C898        H906   1.084       .  S
C907        C908   1.403       .  A
C907        C912   1.405   1_545  A
C907        H923   1.083       .  S
C908        C909   1.406       .  A
C908        H924   1.083       .  S
C909        C919   1.408       .  A
C909        C910   1.410   1_545  A
C910        C916   1.413       .  A
C910        C911   1.416       .  A
C911        C913   1.409       .  A
C911        C912   1.414       .  A
C912        C920   1.412       .  A
C913        C922   1.402       .  A
C913        C914   1.404       .  A
C914        C915   1.399       .  A
C914        H925   1.084       .  S
C915        C916   1.403       .  A
C915        H926   1.084       .  S
C916        C917   1.406       .  A
C917        C918   1.408       .  A
C917        H927   1.084       .  S
C918        C919   1.412   1_565  A
C919        H928   1.084       .  S
C920        C921   1.407       .  A
C920        H929   1.084   1_565  S
C921        C922   1.408       .  A
C922        H930   1.085       .  S
C931        C932   1.400       .  A
C931        C936   1.404       .  A
C931        H947   1.084       .  S
C932        C933   1.404       .  A
C932        H948   1.083       .  S
C933        C943   1.406       .  A
C933        C934   1.411       .  A
C934        C940   1.412   1_545  A
C934        C935   1.418       .  A
C935        C937   1.412   1_545  A
C935        C936   1.412       .  A
C936        C944   1.406       .  A
C937        C946   1.410       .  A
C937        C938   1.405       .  A
C938        C939   1.403       .  A
C938        H949   1.083       .  S
C939        C940   1.405       .  A
C939        H950   1.083       .  S
C940        C941   1.411       .  A
C941        C942   1.411       .  A
C941        H951   1.084       .  S
C942        C943   1.410   1_565  A
C943        H952   1.084       .  S
C944        C945   1.407       .  A
C944        H953   1.085       .  S
C945        C946   1.408   1_545  A
C946        H954   1.084       .  S
C955        C956   1.397       .  A
C955        C960   1.403       .  A
C955        H971   1.084       .  S
C956        C957   1.402       .  A
C956        H972   1.084       .  S
C957        C967   1.401       .  A
C957        C958   1.412       .  A
C958        C964   1.411   1_565  A
C958        C959   1.413       .  A
C959        C961   1.413   1_565  A
C959        C960   1.410       .  A
C960        C968   1.399       .  A
C961        C970   1.410       .  A
C961        C962   1.405       .  A
C962        C963   1.402       .  A
C962        H973   1.083       .  S
C963        C964   1.405       .  A
C963        H974   1.084       .  S
C964        C965   1.407       .  A
C965        C966   1.406   1_545  A
C965        H975   1.085       .  S
C966        C967   1.403       .  A
C967        H976   1.085       .  S
C968        C969   1.408       .  A
C968        H977   1.084       .  S
C969        C970   1.409   1_565  A
C970        H978   1.084       .  S
C979        C980   1.403       .  A
C979        C984   1.405       .  A
C979        H995   1.083       .  S
C980        C981   1.405       .  A
C980        H996   1.083       .  S
C981        C991   1.409       .  A
C981        C982   1.411   1_554  A
C982        C988   1.412       .  A
C982        C983   1.417       .  A
C983        C985   1.410       .  A
C983        C984   1.413   1_556  A
C984        C992   1.412   1_554  A
C985        C994   1.404       .  A
C985        C986   1.404       .  A
C986        C987   1.399       .  A
C986        H997   1.083       .  S
C987        C988   1.403       .  A
C987        H998   1.084       .  S
C988        C989   1.406       .  A
C989        C990   1.407       .  A
C989        H999   1.084       .  S
C990        C991   1.410   1_556  A
C991       H1000   1.084       .  S
C992        C993   1.409       .  A
C992       H1001   1.084   1_556  S
C993        C994   1.407       .  A
C994       H1002   1.085       .  S
C1003      C1004   1.395       .  A
C1003      C1008   1.402       .  A
C1003      H1019   1.084       .  S
C1004      C1005   1.402       .  A
C1004      H1020   1.084       .  S
C1005      C1015   1.397       .  A
C1005      C1006   1.409       .  A
C1006      C1012   1.413       .  A
C1006      C1007   1.413       .  A
C1007      C1009   1.412       .  A
C1007      C1008   1.412       .  A
C1008      C1016   1.399       .  A
C1009      C1018   1.409       .  A
C1009      C1010   1.405   1_556  A
C1010      C1011   1.403       .  A
C1010      H1021   1.083       .  S
C1011      C1012   1.405   1_554  A
C1011      H1022   1.083       .  S
C1012      C1013   1.411   1_556  A
C1013      C1014   1.410   1_554  A
C1013      H1023   1.084       .  S
C1014      C1015   1.407       .  A
C1015      H1024   1.084       .  S
C1016      C1017   1.404       .  A
C1016      H1025   1.085       .  S
C1017      C1018   1.408       .  A
C1018      H1026   1.084       .  S
C1027      C1028   1.397       .  A
C1027      C1032   1.403       .  A
C1027      H1043   1.083       .  S
C1028      C1029   1.402       .  A
C1028      H1044   1.084       .  S
C1029      C1039   1.401       .  A
C1029      C1030   1.412       .  A
C1030      C1036   1.411   1_554  A
C1030      C1031   1.414       .  A
C1031      C1033   1.413       .  A
C1031      C1032   1.410       .  A
C1032      C1040   1.400       .  A
C1033      C1042   1.410       .  A
C1033      C1034   1.405   1_554  A
C1034      C1035   1.403       .  A
C1034      H1045   1.084       .  S
C1035      C1036   1.405       .  A
C1035      H1046   1.083       .  S
C1036      C1037   1.408       .  A
C1037      C1038   1.410   1_556  A
C1037      H1047   1.084       .  S
C1038      C1039   1.406       .  A
C1039      H1048   1.085       .  S
C1040      C1041   1.406       .  A
C1040      H1049   1.085       .  S
C1041      C1042   1.407       .  A
C1042      H1050   1.084       .  S
C1051      C1052   1.404       .  A
C1051      C1056   1.405   1_556  A
C1051      H1067   1.083       .  S
C1052      C1053   1.405       .  A
C1052      H1068   1.083       .  S
C1053      C1063   1.413       .  A
C1053      C1054   1.413   1_556  A
C1054      C1060   1.410       .  A
C1054      C1055   1.415       .  A
C1055      C1057   1.412       .  A
C1055      C1056   1.412       .  A
C1056      C1064   1.410       .  A
C1057      C1066   1.400       .  A
C1057      C1058   1.402       .  A
C1058      C1059   1.397       .  A
C1058      H1069   1.084       .  S
C1059      C1060   1.403       .  A
C1059      H1070   1.084       .  S
C1060      C1061   1.399       .  A
C1061      C1062   1.407       .  A
C1061      H1071   1.085       .  S
C1062      C1063   1.409   1_554  A
C1063      H1072   1.084       .  S
C1064      C1065   1.408       .  A
C1064      H1073   1.084       .  S
C1065      C1066   1.404       .  A
C1066      H1074   1.085       .  S
