geometry optimzed in LAMMPS
_audit_creation_date              2020-11-30 
_audit_creation_method            'lammps2cif' 
_symmetry_space_group_name_H-M    'P1' 
_symmetry_Int_Tables_number       1 
_symmetry_cell_setting            triclinic 
loop_ 
_symmetry_equiv_pos_as_xyz 
  x,y,z 
_cell_length_a                    55.92596517 
_cell_length_b                    55.895725836813476 
_cell_length_c                    55.766337821251525 
_cell_angle_alpha                 89.882818651399 
_cell_angle_beta                  90.25592981594319 
_cell_angle_gamma                 88.50467270314688 
loop_ 
_atom_site_label 
_atom_site_type_symbol 
_atom_site_fract_x 
_atom_site_fract_y 
_atom_site_fract_z 
_atom_site_charge 
O1          O  0.73322936  0.75948515  0.79092291    -0.88400
C2          C  0.73862759  0.70004304  0.75001252     0.87700
Mg3        Mg  0.71619329  0.79152606  0.77795825     1.58100
O4          O  0.79112457  0.73223253  0.75581812    -0.88100
O5          O  0.76830976  0.74816911  0.80505788    -0.75400
C6          C  0.75637108  0.80647134  0.66639746     0.92700
O7          O  0.69630687  0.74065941  0.75189019    -0.75200
O8          O  0.73836237  0.81173502  0.67944554    -0.82800
Mg9        Mg  0.71355224  0.72736552  0.78717629     1.58000
C10         C  0.83467802  0.74541161  0.69832386     0.92600
O11         O  0.72721794  0.71165299  0.82345892    -0.81000
H12         H  0.81618925  0.74725190  0.77611698    -0.06400
C13         C  0.75281807  0.74389945  0.69487888     0.87600
O14         O  0.75245667  0.80672043  0.76733277    -0.75500
O15         O  0.74321416  0.71231088  0.76786282    -0.88300
O16         O  0.82596351  0.72864571  0.71085053    -0.81100
C17         C  0.79996547  0.66774681  0.75213990     0.92700
C18         C  0.74459517  0.69868978  0.83151908     0.92600
Mg19       Mg  0.78915726  0.77950123  0.71101810     1.58000
O20         O  0.77413807  0.79392893  0.67443218    -0.81000
O21         O  0.80646404  0.76690373  0.74680348    -0.75300
O22         O  0.78764881  0.67597148  0.76961469    -0.81100
O23         O  0.68137690  0.74339401  0.80636627    -0.82800
O24         O  0.71325119  0.83122230  0.72862260    -0.81100
C25         C  0.80510947  0.74850164  0.76020368     0.87000
O26         O  0.75964788  0.79503262  0.73035553    -0.88300
O27         O  0.77024504  0.74698386  0.70816229    -0.88400
O28         O  0.73466988  0.75808717  0.69491250    -0.75400
Mg29       Mg  0.77722737  0.71287502  0.78578268     1.58000
O30         O  0.80607504  0.68104896  0.73482143    -0.82800
H31         H  0.74974903  0.77749367  0.81683843    -0.06500
O32         O  0.71199875  0.77526073  0.74361478    -0.88100
H33         H  0.68630895  0.76126246  0.72337853    -0.06400
H34         H  0.78118314  0.81689841  0.74810949    -0.06500
C35         C  0.69761783  0.75941678  0.73908332     0.87000
C36         C  0.75011709  0.76224264  0.80494458     0.87600
C37         C  0.76493104  0.80685389  0.74830293     0.87600
H38         H  0.75272906  0.72832960  0.68341602    -0.06500
O39         O  0.75199020  0.69959193  0.73156704    -0.75500
Mg40       Mg  0.72517750  0.79395900  0.71323117     1.58000
H41         H  0.72245003  0.68988247  0.74984719    -0.06500
C42         C  0.66956518  0.76250344  0.80123112     0.92600
O43         O  0.69949501  0.82636596  0.76571722    -0.82800
C44         C  0.70262880  0.83928853  0.74730349     0.92700
O45         O  0.76317704  0.69428384  0.81897073    -0.82800
Mg46       Mg  0.78836172  0.71548001  0.72164840     1.58200
O47         O  0.67886797  0.77945994  0.78950077    -0.81100
O48         O  0.82178344  0.76344695  0.69185680    -0.82800
C49         C  0.62407649  0.00696163  0.75663747    -0.02500
O50         O  0.75554447  0.21129277  0.77015712    -0.88400
C51         C  0.69645684  0.25466096  0.76243045     0.87700
Mg52       Mg  0.78651634  0.22131726  0.79001941     1.58100
O53         O  0.73148072  0.24841711  0.71116430    -0.88100
O54         O  0.74582262  0.19899296  0.73410501    -0.75400
C55         C  0.80574743  0.33174222  0.75141863     0.92700
O56         O  0.73416756  0.25021538  0.80668728    -0.75200
O57         O  0.80973858  0.31833568  0.76953455    -0.82800
Mg58       Mg  0.72182437  0.21623115  0.78765293     1.58000
C59         C  0.74959312  0.30482631  0.66981673     0.92600
O60         O  0.70847215  0.18120590  0.77197480    -0.81000
H61         H  0.74742397  0.22768464  0.68646064    -0.06400
C62         C  0.74271829  0.30683642  0.75199577     0.87600
O63         O  0.80511570  0.23180889  0.75492833    -0.75500
O64         O  0.70918649  0.23680800  0.75783893    -0.88300
O65         O  0.73173442  0.29390211  0.67816261    -0.81100
C66         C  0.66761570  0.25596714  0.69957653     0.92700
C67         C  0.69655197  0.17334622  0.75432322     0.92600
Mg68       Mg  0.78032113  0.28919797  0.71670776     1.58000
O69         O  0.79460345  0.32426679  0.73294499    -0.81000
O70         O  0.76780330  0.25485986  0.69818028    -0.75300
O71         O  0.67477034  0.23779574  0.71187198    -0.81100
O72         O  0.73391424  0.19542836  0.82003913    -0.82800
O73         O  0.82710445  0.26760027  0.79425202    -0.81100
C74         C  0.74859078  0.24313646  0.69799227     0.87000
O75         O  0.79305990  0.26867292  0.74694432    -0.88300
O76         O  0.74651184  0.29401142  0.73424916    -0.88400
O77         O  0.75577422  0.30551159  0.77073694    -0.75400
Mg78       Mg  0.71097648  0.21942869  0.72371007     1.58000
O79         O  0.68175431  0.27275686  0.69472106    -0.82800
H80         H  0.77441193  0.18581468  0.75292876    -0.06500
O81         O  0.77066201  0.25617783  0.79401252    -0.88100
H82         H  0.75499805  0.27675383  0.81901038    -0.06400
H83         H  0.81708336  0.25103902  0.72670536    -0.06500
C84         C  0.75361352  0.26150847  0.80723641     0.87000
C85         C  0.75913528  0.19807357  0.75267000     0.87600
C86         C  0.80570465  0.25077604  0.74231870     0.87600
H87         H  0.72740870  0.31905316  0.75183271    -0.06500
O88         O  0.69687076  0.27353996  0.74967150    -0.75500
Mg89       Mg  0.79069353  0.28538489  0.78155672     1.58000
H90         H  0.68516403  0.25443241  0.77810718    -0.06500
C91         C  0.75187673  0.19848752  0.83354367     0.92600
O92         O  0.82091650  0.23125366  0.80921833    -0.82800
C93         C  0.83456786  0.24874131  0.80534564     0.92700
O94         O  0.69132277  0.18638968  0.73618618    -0.82800
Mg95       Mg  0.71561673  0.28326735  0.71443047     1.58200
O96         O  0.77032705  0.20930342  0.82624253    -0.81100
O97         O  0.76751453  0.30952754  0.68306082    -0.82800
C98         C  0.87665755  0.49914179  0.74750509    -0.02500
C99         C  0.75332877  0.87897224  0.49670145    -0.02500
O100        O  0.76924962  0.75264113  0.20817727    -0.88400
C101        C  0.76166016  0.69396942  0.25017719     0.87700
Mg102      Mg  0.78746130  0.78317659  0.22049371     1.58100
O103        O  0.70914307  0.72936354  0.24472247    -0.88100
O104        O  0.73297717  0.74444345  0.19600474    -0.75400
C105        C  0.74549748  0.80184849  0.33069348     0.92700
O106        O  0.80545585  0.73101742  0.24775878    -0.75200
O107        O  0.76313354  0.80704024  0.31748797    -0.82800
Mg108      Mg  0.78766776  0.71890975  0.21266889     1.58000
C109        C  0.66688653  0.74680484  0.30239532     0.92600
O110        O  0.77276203  0.70486886  0.17673541    -0.81000
H111        H  0.68379218  0.74475150  0.22403348    -0.06400
C112        C  0.74840932  0.73929912  0.30439749     0.87600
O113        O  0.75145575  0.80144634  0.23042812    -0.75500
O114        O  0.75733592  0.70675205  0.23243435    -0.88300
O115        O  0.67548582  0.72820668  0.29188408    -0.81100
C116        C  0.69933956  0.66566901  0.24858503     0.92700
C117        C  0.75461640  0.69384864  0.16893447     0.92600
Mg118      Mg  0.71276009  0.77721474  0.28654999     1.58000
O119        O  0.72801569  0.78996512  0.32272014    -0.81000
O120        O  0.69467050  0.76551640  0.25161058    -0.75300
O121        O  0.71162721  0.67335253  0.23106528    -0.81100
O122        O  0.82099196  0.73164242  0.19316328    -0.82800
O123        O  0.78838974  0.82327341  0.26807016    -0.81100
C124        C  0.69521854  0.74619894  0.23962162     0.87000
O125        O  0.74287485  0.78939977  0.26684083    -0.88300
O126        O  0.73081973  0.74318017  0.29123510    -0.88400
O127        O  0.76674842  0.75231025  0.30383564    -0.75400
Mg128      Mg  0.72306974  0.70963044  0.21500226     1.58000
O129        O  0.69395738  0.67903123  0.26632870    -0.82800
H130        H  0.75187128  0.77218386  0.18325206    -0.06500
O131        O  0.79065074  0.76696134  0.25511813    -0.88100
H132        H  0.81584317  0.75137169  0.27586082    -0.06400
H133        H  0.72228734  0.81321951  0.24893124    -0.06500
C134        C  0.80457586  0.75010044  0.26013642     0.87000
C135        C  0.75167391  0.75687238  0.19511622     0.87600
C136        C  0.73830284  0.80195994  0.24899484     0.87600
H137        H  0.74846933  0.72396738  0.31624896    -0.06500
O138        O  0.74824043  0.69424682  0.26856408    -0.75500
Mg139      Mg  0.77679568  0.78718469  0.28464535     1.58000
H140        H  0.77761795  0.68262952  0.25027797    -0.06500
C141        C  0.83338128  0.74996524  0.19758188     0.92600
O142        O  0.80529439  0.81670488  0.23240892    -0.82800
C143        C  0.80021783  0.83032242  0.24995992     0.92700
O144        O  0.73628880  0.69064335  0.18185966    -0.82800
Mg145      Mg  0.71231091  0.71255688  0.27907400     1.58200
O146        O  0.82455926  0.76778340  0.20908986    -0.81100
O147        O  0.67927139  0.76534965  0.30546662    -0.82800
C148        C  0.74242144  0.62233885  0.00040382    -0.02500
C149        C  0.49866820  0.74940943  0.37703472    -0.02500
C150        C  0.12661965  0.00377252  0.75033652    -0.02500
C151        C  0.74808145  0.11844639  0.99947996    -0.02500
C152        C  0.37462895  0.49781577  0.74814483    -0.02500
C153        C  0.75323468  0.37826431  0.50093036    -0.02500
C154        C  0.61935284  0.50204689  0.24909289    -0.02500
C155        C  0.25082903  0.62532846  0.50042866    -0.02500
C156        C  0.00006186  0.74369343  0.12017114    -0.02500
O157        O  0.27418868  0.77333959  0.27301736    -0.88400
C158        C  0.27805212  0.75630410  0.20268169     0.87700
Mg159      Mg  0.27783259  0.74742425  0.30076129     1.58100
O160        O  0.22010480  0.76912268  0.22320263    -0.88100
O161        O  0.24754255  0.80032175  0.26106898    -0.75400
C162        C  0.20882544  0.65844767  0.26668486     0.92700
O163        O  0.30543957  0.73188612  0.24788116    -0.75200
O164        O  0.22719317  0.66210499  0.27958391    -0.82800
Mg165      Mg  0.30122683  0.77291110  0.24597342     1.58000
C166        C  0.16340767  0.72665799  0.20549725     0.92600
O167        O  0.30020783  0.81422859  0.24393347    -0.81000
H168        H  0.19638192  0.79166120  0.23845325    -0.06400
C169        C  0.23898488  0.69841238  0.21983176     0.87600
O170        O  0.23694450  0.74569339  0.30390645    -0.75500
O171        O  0.27366954  0.77004866  0.21957797    -0.88300
O172        O  0.17971866  0.73890173  0.19576868    -0.81100
C173        C  0.23055792  0.78708480  0.16224492     0.92700
C174        C  0.28977746  0.83121198  0.23228643     0.92600
Mg175      Mg  0.19788795  0.71609087  0.25105637     1.58000
O176        O  0.19872880  0.67501990  0.25423053    -0.81000
O177        O  0.19326031  0.75703671  0.24873915    -0.75300
O178        O  0.24277663  0.79695998  0.17871717    -0.81100
O179        O  0.33158667  0.77434795  0.27308119    -0.82800
O180        O  0.25571407  0.69292759  0.31881074    -0.81100
C181        C  0.20292471  0.77339483  0.23656314     0.87000
O182        O  0.22546491  0.71946234  0.27729671    -0.88300
O183        O  0.22495059  0.71540892  0.22389848    -0.88400
O184        O  0.25152750  0.68852167  0.23635393    -0.75400
Mg185      Mg  0.24559971  0.79693830  0.22010424     1.58000
O186        O  0.21805749  0.76883312  0.16624013    -0.82800
H187        H  0.25822353  0.79627839  0.29568515    -0.06500
O188        O  0.27900249  0.71987933  0.27400019    -0.88100
H189        H  0.30228656  0.69727264  0.25818651    -0.06400
H190        H  0.20257999  0.73557646  0.29989352    -0.06500
C191        C  0.29591325  0.71557349  0.26026997     0.87000
C192        C  0.26024481  0.79031206  0.27736166     0.87600
C193        C  0.22089338  0.73334234  0.29401574     0.87600
H194        H  0.24117294  0.69226560  0.20158392    -0.06500
O195        O  0.26191440  0.74395153  0.19290022    -0.75500
Mg196      Mg  0.25339424  0.69237390  0.27740755     1.58000
H197        H  0.29629159  0.75417390  0.19654800    -0.06500
C198        C  0.33537526  0.76141748  0.29159353     0.92600
O199        O  0.28029665  0.72115349  0.33130506    -0.82800
C200        C  0.26747731  0.70317852  0.33535278     0.92700
O201        O  0.27175978  0.82769005  0.21876965    -0.82800
Mg202      Mg  0.22101042  0.74177579  0.19628563     1.58200
O203        O  0.31884101  0.74965484  0.30143381    -0.81100
O204        O  0.16754853  0.71378437  0.22397636    -0.82800
C205        C  0.25523932  0.87110066  0.00167218    -0.02500
C206        C  0.49971511  0.25243015  0.62308516    -0.02500
O207        O  0.27545588  0.27720036  0.77703650    -0.88400
C208        C  0.20545965  0.27549109  0.75867362     0.87700
Mg209      Mg  0.30327888  0.28001422  0.75123958     1.58100
O210        O  0.23120485  0.21986646  0.77505573    -0.88100
O211        O  0.26567245  0.25215532  0.80541774    -0.75400
C212        C  0.27691444  0.20291602  0.66394481     0.92700
O213        O  0.24856216  0.30299107  0.73308508    -0.75200
O214        O  0.28856206  0.22180438  0.66784000    -0.82800
Mg215      Mg  0.24590560  0.30247364  0.77424173     1.58000
C216        C  0.21862351  0.15957458  0.73645280     0.92600
O217        O  0.24182538  0.30537728  0.81556652    -0.81000
H218        H  0.24900192  0.19904238  0.79866411    -0.06400
C219        C  0.22726069  0.23262857  0.70316674     0.87600
O220        O  0.30991011  0.23920910  0.75170563    -0.75500
O221        O  0.22241438  0.27308777  0.77287855    -0.88300
O222        O  0.20778087  0.17646023  0.74760217    -0.81100
C223        C  0.16882376  0.22851803  0.79215557     0.92700
C224        C  0.23103841  0.29523842  0.83285429     0.92600
Mg225      Mg  0.26155915  0.19485485  0.72281594     1.58000
O226        O  0.26502450  0.19280516  0.68060235    -0.81000
O227        O  0.25928756  0.19386484  0.76415214    -0.75300
O228        O  0.18443398  0.24180595  0.80167102    -0.81100
O229        O  0.27009696  0.33463208  0.77394638    -0.82800
O230        O  0.32416706  0.25609579  0.69685365    -0.81100
C231        C  0.24631278  0.20400370  0.78007922     0.87000
O232        O  0.28587268  0.22382249  0.72487467    -0.88300
O233        O  0.23227950  0.22046691  0.72113667    -0.88400
O234        O  0.24279850  0.24502283  0.69259709    -0.75400
Mg235      Mg  0.22525655  0.24717660  0.80141554     1.58000
O236        O  0.17372436  0.21511833  0.77429923    -0.82800
H237        H  0.29903454  0.26495881  0.80146382    -0.06500
O238        O  0.27712269  0.27724515  0.72309786    -0.88100
H239        H  0.25967685  0.29762113  0.69888525    -0.06400
H240        H  0.30980967  0.20390030  0.74334186    -0.06500
C241        C  0.26201981  0.29290816  0.71757678     0.87000
C242        C  0.28078132  0.26513648  0.79498997     0.87600
C243        C  0.30228605  0.22156952  0.73976559     0.87600
H244        H  0.20903137  0.23320120  0.69662309    -0.06500
O245        O  0.19742160  0.25795232  0.74693916    -0.75500
Mg246      Mg  0.28337574  0.25001159  0.69674486     1.58000
H247        H  0.19781695  0.29318723  0.75551259    -0.06500
C248        C  0.28868858  0.33826999  0.76146536     0.92600
O249        O  0.33408132  0.28209182  0.72531999    -0.82800
C250        C  0.33926810  0.26952306  0.70702331     0.92700
O251        O  0.22066909  0.27541503  0.83019526    -0.82800
Mg252      Mg  0.20449432  0.21735344  0.74749582     1.58200
O253        O  0.30027928  0.32122236  0.75124341    -0.81100
O254        O  0.23654170  0.16319322  0.72295694    -0.82800
C255        C  0.00524800  0.24176578  0.87630524    -0.02500
O256        O  0.78021285  0.22656343  0.22145302    -0.88400
C257        C  0.70871458  0.22443300  0.23149173     0.87700
Mg258      Mg  0.80564588  0.22261503  0.24982033     1.58100
O259        O  0.73070799  0.28162093  0.22122968    -0.88100
O260        O  0.77103541  0.25244136  0.19307875    -0.75400
C261        C  0.76306276  0.29380359  0.33707262     0.92700
O262        O  0.75132443  0.19750776  0.26067071    -0.75200
O263        O  0.77778202  0.27632084  0.33383167    -0.82800
Mg264      Mg  0.75287302  0.20051032  0.21957013     1.58000
C265        C  0.70785800  0.33859088  0.26256830     0.92600
O266        O  0.75397244  0.19962054  0.17831199    -0.81000
H267        H  0.74831491  0.30490541  0.20104708    -0.06400
C268        C  0.72121743  0.26353707  0.29174535     0.87600
O269        O  0.80841416  0.26365050  0.25245727    -0.75500
O270        O  0.72683402  0.22865924  0.21975533    -0.88300
O271        O  0.70069576  0.32219827  0.24865577    -0.81100
C272        C  0.67147470  0.27174696  0.19785221     0.92700
C273        C  0.74334070  0.20919206  0.16029953     0.92600
Mg274      Mg  0.75259118  0.30407744  0.27794852     1.58000
O275        O  0.75111229  0.30297539  0.31961203    -0.81000
O276        O  0.75441075  0.30827362  0.23679488    -0.75300
O277        O  0.68913715  0.26011326  0.18877695    -0.81100
O278        O  0.77905226  0.16948358  0.22037022    -0.82800
O279        O  0.81990054  0.24596609  0.30594614    -0.81100
C280        C  0.74437512  0.29854482  0.21888236     0.87000
O281        O  0.77991835  0.27645391  0.27656775    -0.88300
O282        O  0.72662953  0.27695811  0.27503825    -0.88400
O283        O  0.73696327  0.25149362  0.30351532    -0.75400
Mg284      Mg  0.73003372  0.25580353  0.19278776     1.58000
O285        O  0.67355172  0.28392068  0.21694393    -0.82800
H286        H  0.80496454  0.24086358  0.20044099    -0.06500
O287        O  0.77705872  0.22270732  0.27536931    -0.88100
H288        H  0.75860155  0.20069882  0.29617593    -0.06400
H289        H  0.80365035  0.29841186  0.26222651    -0.06500
C290        C  0.76251617  0.20661941  0.27818218     0.87000
C291        C  0.78620644  0.23966348  0.20473570     0.87600
C292        C  0.79759904  0.28028769  0.26398100     0.87600
H293        H  0.70256050  0.26161899  0.29613886    -0.06500
O294        O  0.69787341  0.24056529  0.24355132    -0.75500
Mg295      Mg  0.77826942  0.24904342  0.30331110     1.58000
H296        H  0.70251932  0.20629339  0.23229571    -0.06500
C297        C  0.79697358  0.16497300  0.23382417     0.92600
O298        O  0.83378770  0.21982371  0.27884237    -0.82800
C299        C  0.83695171  0.23334837  0.29682692     0.92700
O300        O  0.73063141  0.22835732  0.16232324    -0.82800
Mg301      Mg  0.70145294  0.28115465  0.24621519     1.58200
O302        O  0.80660345  0.18117598  0.24646414    -0.81100
O303        O  0.72427765  0.33445448  0.27804893    -0.82800
C304        C  0.87299985  0.99628244  0.24378772    -0.02500
C305        C  0.00261899  0.25599288  0.37251082    -0.02500
O306        O  0.26342476  0.28996871  0.22669317    -0.88400
C307        C  0.20101922  0.25390696  0.23011623     0.87700
Mg308      Mg  0.29562839  0.27469274  0.21229467     1.58100
O309        O  0.23028896  0.25893057  0.28569768    -0.88100
O310        O  0.25055247  0.30506491  0.26077544    -0.75400
C311        C  0.30193808  0.16488580  0.25852894     0.92700
O312        O  0.24340769  0.25094126  0.19040942    -0.75200
O313        O  0.30874157  0.17705320  0.24066653    -0.82800
Mg314      Mg  0.23172912  0.28755907  0.20540075     1.58000
C315        C  0.23932765  0.20042554  0.33079853     0.92600
O316        O  0.21937194  0.32557902  0.21748032    -0.81000
H317        H  0.24530808  0.27935203  0.31069582    -0.06400
C318        C  0.24118057  0.19723331  0.24901215     0.87600
O319        O  0.30850765  0.26449345  0.25020659    -0.75500
O320        O  0.21451356  0.27040930  0.23498655    -0.88300
O321        O  0.22220588  0.21222785  0.32063948    -0.81100
C322        C  0.16572261  0.26051430  0.28974856     0.92700
C323        C  0.20536145  0.33461554  0.23322718     0.92600
Mg324      Mg  0.27629367  0.21249050  0.28746629     1.58000
O325        O  0.28897728  0.17411567  0.27513589    -0.81000
O326        O  0.26478343  0.24932274  0.30258315    -0.75300
O327        O  0.17518462  0.27689042  0.27722122    -0.81100
O328        O  0.24933690  0.30352335  0.17264948    -0.82800
O329        O  0.33195179  0.22287312  0.21612064    -0.81100
C330        C  0.24644491  0.26310091  0.30023848     0.87000
O331        O  0.29336330  0.22948669  0.25811488    -0.88300
O332        O  0.24404028  0.21031192  0.26664804    -0.88400
O333        O  0.25618757  0.19602212  0.23193492    -0.75400
Mg334      Mg  0.21359412  0.28930044  0.26812308     1.58000
O335        O  0.17777458  0.24213506  0.29676170    -0.82800
H336        H  0.28166294  0.31424516  0.24504030    -0.06500
O337        O  0.27753921  0.24169381  0.20816371    -0.88100
H338        H  0.26351849  0.22128728  0.18256888    -0.06400
H339        H  0.31562804  0.24566681  0.28065994    -0.06500
C340        C  0.26187977  0.23745090  0.19310881     0.87000
C341        C  0.26580199  0.30365814  0.24392816     0.87600
C342        C  0.30640165  0.24622131  0.26358343     0.87600
H343        H  0.22505369  0.18706135  0.24773853    -0.06500
O344        O  0.19848328  0.23624944  0.24421626    -0.75500
Mg345      Mg  0.29346793  0.21096685  0.22462895     1.58000
H346        H  0.19151247  0.25425041  0.21319091    -0.06500
C347        C  0.26890387  0.29746957  0.16245562     0.92600
O348        O  0.33099065  0.25912067  0.19918608    -0.82800
C349        C  0.34220916  0.24001601  0.20550119     0.92700
O350        O  0.19719503  0.32213628  0.25029377    -0.82800
Mg351      Mg  0.21216341  0.22576509  0.28201850     1.58200
O352        O  0.28566352  0.28591097  0.17336259    -0.81100
O353        O  0.25918196  0.19679015  0.32019315    -0.82800
C354        C  0.24451775  0.37358195  0.99950628    -0.02500
C355        C  0.37069621  0.99316497  0.25322661    -0.02500
O356        O  0.95895097  0.00937822  0.47575423    -0.88400
C357        C  0.00159471  0.95017161  0.48664491     0.87700
Mg358      Mg  0.97093547  0.04094064  0.45868380     1.58100
O359        O  0.99081167  0.98409319  0.53861791    -0.88100
O360        O  0.94362488  0.99903398  0.51031145    -0.75400
C361        C  0.07778319  0.05749967  0.50886356     0.92700
O362        O  0.00153839  0.98856510  0.44295011    -0.75200
O363        O  0.06535727  0.06344042  0.49051991    -0.82800
Mg364      Mg  0.96577422  0.97607295  0.45794366     1.58000
C365        C  0.04605117  0.99957190  0.58492550     0.92600
O366        O  0.92869069  0.96269953  0.46996308    -0.81000
H367        H  0.96807607  0.99942498  0.56191399    -0.06400
C368        C  0.05288544  0.99530052  0.50399979     0.87600
O369        O  0.97853369  0.05774304  0.49549402    -0.75500
O370        O  0.98341536  0.96287947  0.48963522    -0.88300
O371        O  0.03535790  0.98174328  0.57602107    -0.81100
C372        C  0.99611652  0.92045549  0.54887045     0.92700
C373        C  0.92028942  0.94992363  0.48677795     0.92600
Mg374      Mg  0.03232872  0.03209373  0.53834360     1.58000
O375        O  0.06923901  0.04509305  0.52586938    -0.81000
O376        O  0.99633224  0.01988508  0.55350262    -0.75300
O377        O  0.97913079  0.92792941  0.53525408    -0.81100
O378        O  0.94911207  0.98947379  0.42342323    -0.82800
O379        O  0.01850286  0.08031053  0.46014444    -0.81100
C380        C  0.98448784  0.00080886  0.55189666     0.87000
O381        O  0.01448082  0.04554203  0.50668437    -0.88300
O382        O  0.03845716  0.99875117  0.52049061    -0.88400
O383        O  0.05334371  0.00880801  0.48561867    -0.75400
Mg384      Mg  0.96309465  0.96410082  0.52193750     1.58000
O385        O  0.01313288  0.93372715  0.55521535    -0.82800
H386        H  0.93186194  0.02777336  0.49088255    -0.06500
O387        O  0.00624972  0.02468089  0.45733269    -0.88100
H388        H  0.02914864  0.00962867  0.43404858    -0.06400
H389        H  0.99476027  0.06868878  0.52603129    -0.06500
C390        C  0.01281784  0.00798883  0.44414878     0.87000
C391        C  0.94418646  0.01258050  0.49198191     0.87600
C392        C  0.99614046  0.05793038  0.50998474     0.87600
H393        H  0.06500041  0.97993198  0.50491910    -0.06500
O394        O  0.01896613  0.95013907  0.50142744    -0.75500
Mg395      Mg  0.03435773  0.04405815  0.47391629     1.58000
H396        H  0.00300350  0.93924717  0.47071582    -0.06500
C397        C  0.95065753  0.00877838  0.41146130     0.92600
O398        O  0.98305341  0.07570050  0.44266080    -0.82800
C399        C  0.00077474  0.08856887  0.44789433     0.92700
O400        O  0.93284467  0.94398446  0.50500419    -0.82800
Mg401      Mg  0.02585922  0.96763711  0.53807044     1.58200
O402        O  0.96007662  0.02737128  0.42045148    -0.81100
O403        O  0.04971888  0.01846901  0.57285131    -0.82800
O404        O  0.02419552  0.02383396  0.97518398    -0.88400
C405        C  0.95494899  0.00417282  0.96778270     0.87700
Mg406      Mg  0.05372357  0.99884489  0.97214194     1.58100
O407        O  0.97240707  0.01517802  0.02693198    -0.88100
O408        O  0.00919214  0.04895849  0.00168646    -0.75400
C409        C  0.02232688  0.90554248  0.03813291     0.92700
O410        O  0.00271736  0.98284331  0.94211425    -0.75200
O411        O  0.03576823  0.91058646  0.02059137    -0.82800
Mg412      Mg  0.99781673  0.02349995  0.94708470     1.58000
C413        C  0.95606740  0.96969105  0.08198236     0.92600
O414        O  0.99235247  0.06453344  0.94820447    -0.81000
H415        H  0.98556322  0.03711595  0.05169568    -0.06400
C416        C  0.97436182  0.94541842  0.00640222     0.87600
O417        O  0.05572933  0.99510520  0.01322784    -0.75500
O418        O  0.97083839  0.01815203  0.97338260    -0.88300
O419        O  0.94593083  0.98224056  0.06550076    -0.81100
C420        C  0.91090612  0.03135530  0.01405680     0.92700
C421        C  0.97897297  0.08045046  0.95810292     0.92600
Mg422      Mg  0.00294660  0.96215857  0.04919165     1.58000
O423        O  0.00842766  0.92120295  0.04771253    -0.81000
O424        O  0.99798147  0.00278018  0.05448372    -0.75300
O425        O  0.92716981  0.04237309  0.00282078    -0.81100
O426        O  0.02543013  0.02785137  0.91800707    -0.82800
O427        O  0.07365223  0.94361596  0.99409528    -0.81100
C428        C  0.98501242  0.01911312  0.04471221     0.87000
O429        O  0.02997477  0.96780161  0.02296881    -0.88300
O430        O  0.97682504  0.96187159  0.02096046    -0.88400
O431        O  0.99189169  0.93668930  0.99455824    -0.75400
Mg432      Mg  0.96847845  0.04394162  0.00174412     1.58000
O433        O  0.91544608  0.01241717  0.02610964    -0.82800
H434        H  0.04438158  0.04691620  0.99299923    -0.06500
O435        O  0.02861755  0.97052785  0.96942707    -0.88100
H436        H  0.01513593  0.94851407  0.94492028    -0.06400
H437        H  0.05100813  0.98318564  0.04724565    -0.06500
C438        C  0.01579715  0.96654839  0.95180977     0.87000
C439        C  0.02668495  0.04025897  0.98976851     0.87600
C440        C  0.04586322  0.98177118  0.02860191     0.87600
H441        H  0.95667546  0.93874614  0.00315240    -0.06500
O442        O  0.94523865  0.99070856  0.98314006    -0.75500
Mg443      Mg  0.03257313  0.94194311  0.99470245     1.58000
H444        H  0.94970024  0.00283195  0.94916002    -0.06500
C445        C  0.04459068  0.01569118  0.91433011     0.92600
O446        O  0.08603988  0.97307888  0.97061675    -0.82800
C447        C  0.09025446  0.95436086  0.98317996     0.92700
O448        O  0.96572137  0.07565539  0.97591109    -0.82800
Mg449      Mg  0.94738940  0.98679905  0.02419038     1.58200
O450        O  0.05496325  0.00337393  0.93085765    -0.81100
O451        O  0.97514182  0.95741642  0.07817492    -0.82800
O452        O  0.50745847  0.97761462  0.46428685    -0.88400
C453        C  0.44637959  0.98699569  0.50278281     0.87700
Mg454      Mg  0.53895962  0.96091658  0.47968032     1.58100
O455        O  0.47858519  0.03954205  0.49524367    -0.88100
O456        O  0.49717991  0.01265533  0.44901697    -0.75400
C457        C  0.54995944  0.01179515  0.58788957     0.92700
O458        O  0.48665512  0.94430271  0.50542886    -0.75200
O459        O  0.55674632  0.99324574  0.57624643    -0.82800
Mg460      Mg  0.47452375  0.95913472  0.46862421     1.58000
C461        C  0.49075882  0.08529097  0.55042493     0.92600
O462        O  0.45951196  0.97050555  0.43112923    -0.81000
H463        H  0.49393618  0.06303945  0.47346556    -0.06400
C464        C  0.48878375  0.00486789  0.55847358     0.87600
O465        O  0.55417115  0.99779600  0.48820708    -0.75500
O466        O  0.45941102  0.99053357  0.48531487    -0.88300
O467        O  0.47320523  0.07584715  0.53963142    -0.81100
C468        C  0.41429982  0.04856226  0.49622187     0.92700
C469        C  0.44769551  0.98794238  0.42156226     0.92600
Mg470      Mg  0.52498527  0.03961746  0.53988314     1.58000
O471        O  0.53697119  0.02812805  0.57804035    -0.81000
O472        O  0.51372842  0.05444996  0.50297010    -0.75300
O473        O  0.42313814  0.03622926  0.47895852    -0.81100
O474        O  0.49042313  0.92508776  0.45224331    -0.82800
O475        O  0.57651432  0.96428421  0.52999900    -0.81100
C476        C  0.49506576  0.05294862  0.49000946     0.87000
O477        O  0.54012429  0.00852147  0.52338227    -0.88300
O478        O  0.49221088  0.02116061  0.54391817    -0.88400
O479        O  0.50290421  0.98674331  0.56024642    -0.75400
Mg480      Mg  0.46095909  0.02357687  0.46556452     1.58000
O481        O  0.42667871  0.05413295  0.51445838    -0.82800
H482        H  0.52678547  0.99349471  0.43905043    -0.06500
O483        O  0.52141829  0.95963433  0.51382570    -0.88100
H484        H  0.50602556  0.93587954  0.53527828    -0.06400
H485        H  0.56335210  0.02822258  0.50532925    -0.06500
C486        C  0.50501722  0.94606202  0.51878491     0.87000
C487        C  0.51098648  0.99424499  0.45014817     0.87600
C488        C  0.55313359  0.01208687  0.50590633     0.87600
H489        H  0.47292347  0.00571650  0.56947996    -0.06500
O490        O  0.44544508  0.00122507  0.52053854    -0.75500
Mg491      Mg  0.53920092  0.97617733  0.54359992     1.58000
H492        H  0.43604511  0.97093385  0.50329875    -0.06500
C493        C  0.50981869  0.91354411  0.45698813     0.92600
O494        O  0.57343090  0.94488017  0.49515569    -0.82800
C495        C  0.58555575  0.95157919  0.51320953     0.92700
O496        O  0.44437071  0.00760758  0.43264225    -0.82800
Mg497      Mg  0.46092567  0.03796045  0.52918935     1.58200
O498        O  0.52697084  0.92281049  0.46865456    -0.81100
O499        O  0.50994588  0.07367250  0.55541246    -0.82800
C500        C  0.24615843  0.12497259  0.50014440    -0.02500
O501        O  0.52157840  0.02551634  0.97578665    -0.88400
C502        C  0.52982258  0.95594553  0.99665208     0.87700
Mg503      Mg  0.52259277  0.05462482  0.00102960     1.58100
O504        O  0.47123025  0.97381597  0.98217840    -0.88100
O505        O  0.49704576  0.01085390  0.94909739    -0.75400
C506        C  0.45422397  0.01943323  0.09225470     0.92700
O507        O  0.55339036  0.00332999  0.01850015    -0.75200
O508        O  0.47206094  0.03255541  0.08822422    -0.82800
Mg509      Mg  0.55029149  0.99908575  0.97756989     1.58000
C510        C  0.41417862  0.95674486  0.02361815     0.92600
O511        O  0.55141170  0.99424553  0.93613807    -0.81000
H512        H  0.44787375  0.98852659  0.95886184    -0.06400
C513        C  0.48806746  0.97368548  0.05305655     0.87600
O514        O  0.48155335  0.05615180  0.00321524    -0.75500
O515        O  0.52467180  0.97185770  0.98187832    -0.88300
O516        O  0.43181896  0.94693583  0.01266614    -0.81100
C517        C  0.48611969  0.91234002  0.96775126     0.92700
C518        C  0.54238222  0.98117030  0.91985916     0.92600
Mg519      Mg  0.44536032  0.00313119  0.03428226     1.58000
O520        O  0.44450178  0.00714809  0.07574496    -0.81000
O521        O  0.44298507  0.99953781  0.99318916    -0.75300
O522        O  0.49763269  0.92848535  0.95683512    -0.81100
O523        O  0.57842365  0.02686814  0.97455259    -0.82800
O524        O  0.49800059  0.07270426  0.05603496    -0.81100
C525        C  0.45375202  0.98703735  0.97731199     0.87000
O526        O  0.47128325  0.03006722  0.03055513    -0.88300
O527        O  0.47404826  0.97691061  0.03604578    -0.88400
O528        O  0.49965187  0.99069478  0.06220584    -0.75400
Mg529      Mg  0.49766016  0.96998913  0.95463000     1.58000
O530        O  0.47295090  0.91689651  0.98575601    -0.82800
H531        H  0.50460422  0.04610233  0.95140406    -0.06500
O532        O  0.52503276  0.02880590  0.02961472    -0.88100
H533        H  0.54915997  0.01501166  0.05268593    -0.06400
H534        H  0.44734357  0.05150451  0.01385636    -0.06500
C535        C  0.54284657  0.01602382  0.03434859     0.87000
C536        C  0.50790464  0.02827433  0.95843195     0.87600
C537        C  0.46595305  0.04623433  0.01613738     0.87600
H538        H  0.49124479  0.95570354  0.05972809    -0.06500
O539        O  0.51403569  0.94623742  0.00953232    -0.75500
Mg540      Mg  0.49871303  0.03147576  0.05740362     1.58000
H541        H  0.54839792  0.95068349  0.99923074    -0.06500
C542        C  0.58116403  0.04626664  0.98596325     0.92600
O543        O  0.52175612  0.08632834  0.02733710    -0.82800
C544        C  0.50850798  0.08984536  0.04567274     0.92700
O545        O  0.52476631  0.96778122  0.92402065    -0.82800
Mg546      Mg  0.47291293  0.94829253  0.01096000     1.58200
O547        O  0.56399138  0.05659279  0.99737943    -0.81100
O548        O  0.41645842  0.97546420  0.03628934    -0.82800
C549        C  0.50288468  0.25505902  0.12610256    -0.02500
O550        O  0.51070951  0.54486439  0.00784230    -0.88400
C551        C  0.49954508  0.50849258  0.94559245     0.87700
Mg552      Mg  0.52970826  0.52959902  0.03768658     1.58100
O553        O  0.44878204  0.51310881  0.98212690    -0.88100
O554        O  0.47455010  0.55954428  0.00073505    -0.75400
C555        C  0.48788076  0.41988857  0.04733681     0.92700
O556        O  0.54483025  0.50512513  0.98252972    -0.75200
O557        O  0.50560549  0.43236421  0.05321241    -0.82800
Mg558      Mg  0.52739263  0.54148565  0.97323730     1.58000
C559        C  0.40775720  0.45393034  0.99517393     0.92600
O560        O  0.51394599  0.57899116  0.96106756    -0.81000
H561        H  0.42442487  0.53269836  0.00012238    -0.06400
C562        C  0.48842943  0.45164356  0.98630683     0.87600
O563        O  0.49427650  0.51896556  0.05508357    -0.75500
O564        O  0.49608880  0.52472591  0.96030688    -0.88300
O565        O  0.41440768  0.46696272  0.97763412    -0.81100
C566        C  0.43745592  0.51547903  0.91821832     0.92700
C567        C  0.49594782  0.58837322  0.95014433     0.92600
Mg568      Mg  0.45464049  0.46638825  0.02608639     1.58000
O569        O  0.47010962  0.42881095  0.03571337    -0.81000
O570        O  0.43605462  0.50271956  0.01770352    -0.75300
O571        O  0.44983077  0.53178759  0.92767094    -0.81100
O572        O  0.56136824  0.55755115  0.98641177    -0.82800
O573        O  0.53157222  0.47817327  0.07313691    -0.81100
C574        C  0.43580332  0.51677020  0.99972901     0.87000
O575        O  0.48511475  0.48428774  0.03969004    -0.88300
O576        O  0.47093772  0.46465289  0.99151256    -0.88400
O577        O  0.50720420  0.45045136  0.99932263    -0.75400
Mg578      Mg  0.46273953  0.54392678  0.96468684     1.58000
O579        O  0.43153995  0.49681368  0.92974532    -0.82800
H580        H  0.49481756  0.56904865  0.02924405    -0.06500
O581        O  0.53237606  0.49640726  0.01857799    -0.88100
H582        H  0.55642918  0.47589442  0.00124613    -0.06400
H583        H  0.46538686  0.50022109  0.06517434    -0.06500
C584        C  0.54525457  0.49197400  0.00110457     0.87000
C585        C  0.49370477  0.55845718  0.01309926     0.87600
C586        C  0.48103306  0.50085404  0.05390176     0.87600
H587        H  0.48797751  0.44143544  0.96987473    -0.06500
O588        O  0.48590021  0.49071287  0.94421604    -0.75500
Mg589      Mg  0.51873793  0.46582181  0.03589304     1.58000
H590        H  0.51494199  0.50914775  0.93398151    -0.06500
C591        C  0.57392957  0.55386153  0.00518256     0.92600
O592        O  0.54844805  0.51384763  0.07056579    -0.82800
C593        C  0.54360319  0.49498061  0.08222016     0.92700
O594        O  0.47660743  0.57727752  0.94719661    -0.82800
Mg595      Mg  0.45080604  0.48021539  0.96232075     1.58200
O596        O  0.56597128  0.54261489  0.02331242    -0.81100
O597        O  0.42146039  0.44887897  0.01279560    -0.82800
O598        O  0.97542490  0.53440755  0.52277437    -0.88400
C599        C  0.04588427  0.51537790  0.52951530     0.87700
Mg600      Mg  0.94732704  0.50930830  0.52496780     1.58100
O601        O  0.02743669  0.52867486  0.47082433    -0.88100
O602        O  0.98883772  0.56082191  0.49730225    -0.75400
C603        C  0.98565970  0.41833625  0.45716976     0.92700
O604        O  0.99967312  0.49243297  0.55440810    -0.75200
O605        O  0.97177826  0.42249796  0.47479606    -0.82800
Mg606      Mg  0.00187699  0.53323178  0.55088571     1.58000
C607        C  0.04632141  0.48659313  0.41430728     0.92600
O608        O  0.00418969  0.57436987  0.55091111    -0.81000
H609        H  0.01221771  0.55130243  0.44711637    -0.06400
C610        C  0.02983640  0.45845624  0.48918988     0.87600
O611        O  0.94540142  0.50681714  0.48383986    -0.75500
O612        O  0.02915520  0.52941396  0.52435311    -0.88300
O613        O  0.05520209  0.49855821  0.43144815    -0.81100
C614        C  0.08850208  0.54451415  0.48419475     0.92700
C615        C  0.01663117  0.59065673  0.54142855     0.92600
Mg616      Mg  0.00012577  0.47594284  0.44683202     1.58000
O617        O  0.99763571  0.43479145  0.44732229    -0.81000
O618        O  0.00222069  0.51687757  0.44320383    -0.75300
O619        O  0.07158997  0.55546908  0.49539797    -0.81100
O620        O  0.97437324  0.53548108  0.58057909    -0.82800
O621        O  0.93049337  0.45364366  0.50272582    -0.81100
C622        C  0.01420394  0.53304626  0.45340206     0.87000
O623        O  0.97253577  0.47984424  0.47322593    -0.88300
O624        O  0.02613237  0.47528871  0.47509142    -0.88400
O625        O  0.01302836  0.44907118  0.50091349    -0.75400
Mg626      Mg  0.02987642  0.55630621  0.49688789     1.58000
O627        O  0.08477822  0.52589545  0.47180897    -0.82800
H628        H  0.95379455  0.55804334  0.50588507    -0.06500
O629        O  0.97403941  0.48109164  0.52702197    -0.88100
H630        H  0.98899200  0.45823899  0.55065531    -0.06400
H631        H  0.95044065  0.49585196  0.44952106    -0.06500
C632        C  0.98726376  0.47651930  0.54438635     0.87000
C633        C  0.97190217  0.55141893  0.50884502     0.87600
C634        C  0.95582320  0.49391306  0.46808129     0.87600
H635        H  0.04800502  0.45202490  0.49217870    -0.06500
O636        O  0.05629894  0.50248059  0.51376117    -0.75500
Mg637      Mg  0.97202937  0.45325649  0.50117836     1.58000
H638        H  0.05126121  0.51344549  0.54807896    -0.06500
C639        C  0.95580810  0.52315805  0.58354206     0.92600
O640        O  0.91666300  0.48336244  0.52587989    -0.82800
C641        C  0.91340092  0.46438410  0.51382989     0.92700
O642        O  0.03059062  0.58652892  0.52385416    -0.82800
Mg643      Mg  0.05404532  0.50046648  0.47266722     1.58200
O644        O  0.94589763  0.51235796  0.56614537    -0.81100
O645        O  0.02857414  0.47314811  0.41759091    -0.82800
O646        O  0.01676203  0.46867631  0.03069198    -0.88400
C647        C  0.02015809  0.53817028  0.01136812     0.87700
Mg648      Mg  0.02096157  0.44024407  0.00541925     1.58100
O649        O  0.96265151  0.51905330  0.02426699    -0.88100
O650        O  0.99045433  0.48180259  0.05697801    -0.75400
C651        C  0.95119558  0.47295187  0.91372926     0.92700
O652        O  0.04703088  0.49262749  0.98897585    -0.75200
O653        O  0.96900567  0.45916294  0.91868024    -0.82800
Mg654      Mg  0.04336509  0.49561069  0.02995540     1.58000
C655        C  0.90555849  0.53604560  0.98145295     0.92600
O656        O  0.04316206  0.49893083  0.07116904    -0.81000
H657        H  0.93951015  0.50416772  0.04670604    -0.06400
C658        C  0.98021034  0.51979379  0.95356578     0.87600
O659        O  0.98003821  0.43676046  0.00289146    -0.75500
O660        O  0.01573099  0.52195073  0.02570513    -0.88300
O661        O  0.92225940  0.54500327  0.99388765    -0.81100
C662        C  0.97446979  0.58094711  0.03969685     0.92700
C663        C  0.03295891  0.51124187  0.08760589     0.92600
Mg664      Mg  0.93992470  0.48986180  0.97116454     1.58000
O665        O  0.94085874  0.48597793  0.92962867    -0.81000
O666        O  0.93613110  0.49326122  0.01218462    -0.75300
O667        O  0.98576078  0.56409316  0.05076995    -0.81100
O668        O  0.07400542  0.46892063  0.03295897    -0.82800
O669        O  0.99982961  0.42066376  0.95009416    -0.81100
C670        C  0.94578880  0.50574214  0.02847877     0.87000
O671        O  0.96757771  0.46271132  0.97565407    -0.88300
O672        O  0.96685777  0.51627006  0.97076483    -0.88400
O673        O  0.99256029  0.50293305  0.94409906    -0.75400
Mg674      Mg  0.98825308  0.52270122  0.05234825     1.58000
O675        O  0.96143756  0.57689020  0.02143146    -0.82800
H676        H  0.00104481  0.44693682  0.05400297    -0.06500
O677        O  0.02098971  0.46631944  0.97719936    -0.88100
H678        H  0.04352533  0.48169262  0.95448904    -0.06400
H679        H  0.94545222  0.44041240  0.99197724    -0.06500
C680        C  0.03749596  0.47996784  0.97278923     0.87000
C681        C  0.00299180  0.46502956  0.04755692     0.87600
C682        C  0.96358189  0.44631759  0.98994589     0.87600
H683        H  0.98190325  0.53780710  0.94681075    -0.06500
O684        O  0.00406725  0.54779550  0.99808458    -0.75500
Mg685      Mg  0.99544060  0.46208456  0.94920101     1.58000
H686        H  0.03842652  0.54370556  0.00946204    -0.06500
C687        C  0.07842531  0.45093950  0.01967022     0.92600
O688        O  0.02425986  0.40901676  0.97977899    -0.82800
C689        C  0.01237890  0.40451543  0.96091134     0.92700
O690        O  0.01464638  0.52463096  0.08337332    -0.82800
Mg691      Mg  0.96329813  0.54492618  0.99598077     1.58200
O692        O  0.06209963  0.44059643  0.00787018    -0.81100
O693        O  0.90957618  0.51809311  0.96785692    -0.82800
C694        C  0.12413266  0.49922836  0.24750422    -0.02500
O695        O  0.52143392  0.52815652  0.47444634    -0.88400
C696        C  0.45093233  0.51145856  0.47537075     0.87700
Mg697      Mg  0.55008897  0.50262726  0.46944427     1.58100
O698        O  0.47585454  0.52332535  0.53168961    -0.88100
O699        O  0.51036521  0.55504837  0.50102580    -0.75400
C700        C  0.52386282  0.41175544  0.54134169     0.92700
O701        O  0.49547644  0.48674047  0.44577713    -0.75200
O702        O  0.53525375  0.41591295  0.52212763    -0.82800
Mg703      Mg  0.49223862  0.52765793  0.44912664     1.58000
C704        C  0.46406793  0.47935693  0.58968088     0.92600
O705        O  0.48827445  0.56883604  0.44911411    -0.81000
H706        H  0.49271627  0.54521274  0.55404723    -0.06400
C707        C  0.47364086  0.45268773  0.51334575     0.87600
O708        O  0.55629836  0.49997450  0.51014924    -0.75500
O709        O  0.46798905  0.52477744  0.47849638    -0.88300
O710        O  0.45281586  0.49181682  0.57388159    -0.81100
C711        C  0.41388105  0.54236831  0.52656980     0.92700
C712        C  0.47723767  0.58598050  0.45980935     0.92600
Mg713      Mg  0.50715457  0.46944696  0.55254056     1.58000
O714        O  0.51179832  0.42806854  0.55225314    -0.81000
O715        O  0.50385212  0.51044366  0.55661853    -0.75300
O716        O  0.42876002  0.55208575  0.51244113    -0.81100
O717        O  0.51678832  0.52938493  0.41668933    -0.82800
O718        O  0.57178382  0.44739748  0.49052676    -0.81100
C719        C  0.49059956  0.52710552  0.54776871     0.87000
O720        O  0.53143956  0.47334589  0.52342017    -0.88300
O721        O  0.47797017  0.46942141  0.52709181    -0.88400
O722        O  0.48972925  0.44300308  0.50021018    -0.75400
Mg723      Mg  0.46986447  0.55159854  0.50597046     1.58000
O724        O  0.41945431  0.52346364  0.53833960    -0.82800
H725        H  0.54424859  0.55127106  0.48851483    -0.06500
O726        O  0.52444584  0.47469730  0.47007007    -0.88100
H727        H  0.50745437  0.45226483  0.44838641    -0.06400
H728        H  0.55514695  0.48898621  0.54481978    -0.06500
C729        C  0.50940707  0.47049862  0.45435986     0.87000
C730        C  0.52609227  0.54514458  0.48770118     0.87600
C731        C  0.54801696  0.48717515  0.52688308     0.87600
H732        H  0.45553144  0.44650462  0.51203020    -0.06500
O733        O  0.44263879  0.49889537  0.49228355    -0.75500
Mg734      Mg  0.53049122  0.44678995  0.49575316     1.58000
H735        H  0.44334188  0.50991127  0.45759345    -0.06500
C736        C  0.53586279  0.51732442  0.41218157     0.92600
O737        O  0.58150359  0.47632657  0.46512718    -0.82800
C738        C  0.58713835  0.45786962  0.47753012     0.92700
O739        O  0.46554890  0.58264880  0.47908335    -0.82800
Mg740      Mg  0.44976837  0.49587364  0.53285397     1.58200
O741        O  0.54762619  0.50622627  0.42856626    -0.81100
O742        O  0.48247750  0.46655738  0.58457741    -0.82800
C743        C  0.00313716  0.75354401  0.62527798    -0.02500
O744        O  0.28431168  0.77785125  0.77338832    -0.88400
C745        C  0.26835045  0.70763611  0.77771238     0.87700
Mg746      Mg  0.25709003  0.80522380  0.77681884     1.58100
O747        O  0.27949149  0.72790029  0.71982744    -0.88100
O748        O  0.31058251  0.76552226  0.74666385    -0.75400
C749        C  0.16711023  0.77063117  0.70683452     0.92700
O750        O  0.24427447  0.75263670  0.80498538    -0.75200
O751        O  0.17125361  0.78266798  0.72567039    -0.82800
Mg752      Mg  0.28515326  0.75051479  0.80051784     1.58000
C753        C  0.23809872  0.71012690  0.66252561     0.92600
O754        O  0.32651919  0.74762538  0.79980228    -0.81000
H755        H  0.30118657  0.74312508  0.69618726    -0.06400
C756        C  0.20968698  0.72357292  0.73768774     0.87600
O757        O  0.25397921  0.80814872  0.73566120    -0.75500
O758        O  0.28156347  0.72448429  0.77314070    -0.88300
O759        O  0.25092395  0.70092345  0.67928038    -0.81100
C760        C  0.29885849  0.66659282  0.73264060     0.92700
C761        C  0.34310068  0.73550705  0.78940118     0.92600
Mg762      Mg  0.22523674  0.75504073  0.69625364     1.58000
O763        O  0.18357792  0.75847595  0.69620702    -0.81000
O764        O  0.26620053  0.75299344  0.69228670    -0.75300
O765        O  0.30791327  0.68335151  0.74483793    -0.81100
O766        O  0.28733768  0.77723152  0.83061055    -0.82800
O767        O  0.20177663  0.82179452  0.75323276    -0.81100
C768        C  0.28309247  0.74112548  0.70247082     0.87000
O769        O  0.22853894  0.78121740  0.72381746    -0.88300
O770        O  0.22605531  0.72785395  0.72356844    -0.88400
O771        O  0.19982084  0.73987486  0.75038837    -0.75400
Mg772      Mg  0.30778421  0.72454758  0.74540930     1.58000
O773        O  0.28164782  0.67076753  0.71812411    -0.82800
H774        H  0.30620184  0.80020492  0.75681177    -0.06500
O775        O  0.23087657  0.77789558  0.77763819    -0.88100
H776        H  0.20931743  0.76275439  0.80146096    -0.06400
H777        H  0.24347225  0.80406681  0.70105287    -0.06500
C778        C  0.22736400  0.76465330  0.79500402     0.87000
C779        C  0.30068007  0.78196790  0.75918946     0.87600
C780        C  0.24175481  0.79810465  0.71940474     0.87600
H781        H  0.20419896  0.70530368  0.73989878    -0.06500
O782        O  0.25609046  0.69751304  0.76154451    -0.75500
Mg783      Mg  0.20247274  0.78079241  0.75182517     1.58000
H784        H  0.26666561  0.70179674  0.79610815    -0.06500
C785        C  0.27384229  0.79537368  0.83485317     0.92600
O786        O  0.22889984  0.83548166  0.77871331    -0.82800
C787        C  0.21085910  0.83887325  0.76496091     0.92700
O788        O  0.33905693  0.72260595  0.77117367    -0.82800
Mg789      Mg  0.25350751  0.70071756  0.72042126     1.58200
O790        O  0.26096026  0.80541904  0.81849082    -0.81100
O791        O  0.22365363  0.72771667  0.66622839    -0.82800
C792        C  0.50316698  0.75623753  0.87488693    -0.02500
C793        C  0.48012801  0.75461131  0.85758573     0.01300
C794        C  0.47736084  0.73351083  0.84268935     0.04100
C795        C  0.45597021  0.72929100  0.82999391    -0.11900
C796        C  0.43770088  0.74668824  0.82910021     0.23400
C797        C  0.44050804  0.76840636  0.84085492    -0.12500
C798        C  0.45986991  0.77162117  0.85681092     0.04800
C799        C  0.41422575  0.74147984  0.81790390     0.27300
C800        C  0.40963469  0.74720767  0.79368236    -0.13200
C801        C  0.38644226  0.74480011  0.78412935     0.05400
C802        C  0.36780638  0.73657515  0.79881214    -0.09200
C803        C  0.37269580  0.73005522  0.82278723     0.06200
C804        C  0.39580068  0.73258009  0.83231289    -0.13500
Br805      Br  0.41598373  0.79328188  0.83583602    -0.05600
Br806      Br  0.50278448  0.71043877  0.83614279     0.00000
Br807      Br  0.37994159  0.75430924  0.75140466     0.00500
Br808      Br  0.40213121  0.72446407  0.86541150    -0.03900
Br809      Br  0.45213098  0.79672431  0.87955162     0.00600
Br810      Br  0.45138962  0.69962516  0.81285348    -0.03200
Br811      Br  0.43497794  0.75927410  0.77405412    -0.04100
Br812      Br  0.34784657  0.71711131  0.84249731    -0.00100
C813        C  0.02722292  0.75616435  0.64123024     0.01300
C814        C  0.03129403  0.77807315  0.65449002     0.04100
C815        C  0.05338067  0.78240295  0.66611175    -0.11900
C816        C  0.07151882  0.76477946  0.66695397     0.23400
C817        C  0.06802538  0.74287820  0.65577827    -0.12500
C818        C  0.04776664  0.73937454  0.64106352     0.04800
C819        C  0.09524874  0.76936943  0.67824850     0.27300
C820        C  0.11406626  0.77806383  0.66415747    -0.13200
C821        C  0.13749878  0.77874563  0.67356081     0.05400
C822        C  0.14231836  0.77069637  0.69713488    -0.09200
C823        C  0.12331980  0.76270049  0.71147181     0.06200
C824        C  0.09987982  0.76212998  0.70206869    -0.13500
Br825      Br  0.09302643  0.71816508  0.65936378    -0.05600
Br826      Br  0.00713639  0.80292697  0.65914841     0.00000
Br827      Br  0.16294432  0.79111434  0.65424272     0.00500
Br828      Br  0.07411617  0.75034145  0.72130319    -0.03900
Br829      Br  0.05524557  0.71501344  0.61731794     0.00600
Br830      Br  0.05923625  0.81263891  0.68167076    -0.03200
Br831      Br  0.10777175  0.78838515  0.63165806    -0.04100
Br832      Br  0.12961217  0.75081153  0.74345129    -0.00100
C833        C  0.04266928  0.50966577  0.11236370     0.01300
C834        C  0.04609198  0.48709623  0.12355134     0.04100
C835        C  0.05617369  0.48547584  0.14671362    -0.11900
C836        C  0.06332391  0.50629605  0.15869885     0.23400
C837        C  0.05917433  0.52887800  0.14788805    -0.12500
C838        C  0.04882529  0.53058718  0.12483791     0.04800
C839        C  0.07769549  0.50413230  0.18126073     0.27300
C840        C  0.06690421  0.50596817  0.20376635    -0.13200
C841        C  0.08046813  0.50254229  0.22516974     0.05400
C842        C  0.10656049  0.50081132  0.22452353    -0.09200
C843        C  0.11669647  0.49902807  0.20057165     0.06200
C844        C  0.10226249  0.49957198  0.17974638    -0.13500
Br845      Br  0.06838885  0.55748834  0.16433766    -0.05600
Br846      Br  0.03673907  0.45825213  0.10739475     0.00000
Br847      Br  0.06026163  0.49619332  0.25262392     0.00500
Br848      Br  0.11620799  0.49535126  0.14809256    -0.03900
Br849      Br  0.04477586  0.56156868  0.10972181     0.00600
Br850      Br  0.06092954  0.45465876  0.16195405    -0.03200
Br851      Br  0.03267358  0.51241522  0.20458985    -0.04100
Br852      Br  0.15044173  0.49981603  0.19357521    -0.00100
C853        C  0.00490762  0.72986900  0.60901575     0.01300
C854        C  0.00268761  0.70667333  0.62055088     0.04100
C855        C  0.00290215  0.68518393  0.60738318    -0.11900
C856        C  0.00840835  0.68514859  0.58304563     0.23400
C857        C  0.01103706  0.70686257  0.57097195    -0.12500
C858        C  0.00749579  0.72905804  0.58298450     0.04800
C859        C  0.01098866  0.66185115  0.57025049     0.27300
C860        C  0.03334330  0.64955008  0.56961318    -0.13200
C861        C  0.03518637  0.62628056  0.56013833     0.05400
C862        C  0.01470641  0.61518587  0.55112077    -0.09200
C863        C  0.99241243  0.62764609  0.55125512     0.06200
C864        C  0.99059986  0.65096278  0.56070958    -0.13500
Br865      Br  0.01897447  0.70548494  0.53718036    -0.05600
Br866      Br  0.00397679  0.70159416  0.65479231     0.00000
Br867      Br  0.06555136  0.60899041  0.56096000     0.00500
Br868      Br  0.96013009  0.66798789  0.56108760    -0.03900
Br869      Br  0.00284634  0.75560303  0.56072650     0.00600
Br870      Br  0.99689816  0.65478219  0.62290534    -0.03200
Br871      Br  0.06150091  0.66423755  0.58208804    -0.04100
Br872      Br  0.96437997  0.61301114  0.53809054    -0.00100
C873        C  0.11033728  0.49703127  0.27278094     0.01300
C874        C  0.11069169  0.47592421  0.28828370     0.04100
C875        C  0.09629841  0.47507410  0.30896904    -0.11900
C876        C  0.08709208  0.49609191  0.31913971     0.23400
C877        C  0.08899210  0.51765086  0.30670863    -0.12500
C878        C  0.09844494  0.51797751  0.28320788     0.04800
C879        C  0.07648683  0.49530655  0.34361128     0.27300
C880        C  0.05155458  0.49419552  0.34645331    -0.13200
C881        C  0.04164408  0.49141925  0.36946720     0.05400
C882        C  0.05674002  0.48893896  0.38987078    -0.09200
C883        C  0.08183672  0.48996142  0.38685008     0.06200
C884        C  0.09155282  0.49371150  0.36391369    -0.13500
Br885      Br  0.07802492  0.54683837  0.32227312    -0.05600
Br886      Br  0.13440962  0.44997849  0.28924996     0.00000
Br887      Br  0.00725133  0.49223850  0.37268153     0.00500
Br888      Br  0.12566904  0.49659836  0.36011803    -0.03900
Br889      Br  0.09184984  0.54748253  0.26604973     0.00600
Br890      Br  0.09047152  0.44496356  0.32514719    -0.03200
Br891      Br  0.03105429  0.49627310  0.31855229    -0.04100
Br892      Br  0.10335583  0.48452127  0.41364700    -0.00100
C893        C  0.50389531  0.73055577  0.88822696     0.01300
C894        C  0.52409770  0.71337339  0.88865075     0.04100
C895        C  0.52289664  0.69159561  0.90157085    -0.11900
C896        C  0.50126559  0.68396734  0.91079250     0.23400
C897        C  0.48088180  0.69873689  0.90904142    -0.12500
C898        C  0.48212345  0.72192002  0.89907962     0.04800
C899        C  0.49971507  0.65949139  0.92110780     0.27300
C900        C  0.49445868  0.64011118  0.90602146    -0.13200
C901        C  0.49344205  0.61682275  0.91551139     0.05400
C902        C  0.49761740  0.61280402  0.94019715    -0.09200
C903        C  0.50305774  0.63220633  0.95526542     0.06200
C904        C  0.50412727  0.65549905  0.94570707    -0.13500
Br905      Br  0.45106366  0.68677030  0.92131088    -0.05600
Br906      Br  0.55248206  0.71330468  0.86873771     0.00000
Br907      Br  0.48745739  0.59027063  0.89437703     0.00500
Br908      Br  0.51171774  0.68204941  0.96616613    -0.03900
Br909      Br  0.45354268  0.74147453  0.90408436     0.00600
Br910      Br  0.55079713  0.67039461  0.90573779    -0.03200
Br911      Br  0.48893909  0.64558638  0.87222921    -0.04100
Br912      Br  0.50802128  0.62712546  0.98918549    -0.00100
C913        C  0.50000379  0.27887473  0.11005389     0.01300
C914        C  0.50384053  0.30200411  0.12117966     0.04100
C915        C  0.50218961  0.32352202  0.10800372    -0.11900
C916        C  0.49419228  0.32358278  0.08430660     0.23400
C917        C  0.49026766  0.30195017  0.07263478    -0.12500
C918        C  0.49501250  0.27976566  0.08433569     0.04800
C919        C  0.49110860  0.34681797  0.07149462     0.27300
C920        C  0.46961504  0.36038429  0.07362754    -0.13200
C921        C  0.46820854  0.38413153  0.06520789     0.05400
C922        C  0.48824979  0.39427679  0.05417610    -0.09200
C923        C  0.50919871  0.38001664  0.05051167     0.06200
C924        C  0.51066321  0.35645317  0.05936945    -0.13500
Br925      Br  0.47903715  0.30342578  0.03969595    -0.05600
Br926      Br  0.50712973  0.30704822  0.15528054     0.00000
Br927      Br  0.43934789  0.40308942  0.07062799     0.00500
Br928      Br  0.53979026  0.33748980  0.05578683    -0.03900
Br929      Br  0.49836737  0.25352275  0.06161574     0.00600
Br930      Br  0.50967696  0.35395301  0.12270810    -0.03200
Br931      Br  0.44227959  0.34671513  0.08878401    -0.04100
Br932      Br  0.53588204  0.39235417  0.03286379    -0.00100
C933        C  0.48777727  0.88749615  0.95904365     0.01300
C934        C  0.50926034  0.87396166  0.96161803     0.04100
C935        C  0.51120313  0.85081296  0.95179165    -0.11900
C936        C  0.49167335  0.84120516  0.93936343     0.23400
C937        C  0.46964282  0.85405849  0.93849915    -0.12500
C938        C  0.46772908  0.87720403  0.94823065     0.04800
C939        C  0.49539411  0.81953805  0.92425130     0.27300
C940        C  0.50333900  0.82228660  0.90077189    -0.13200
C941        C  0.50447255  0.80255618  0.88506769     0.05400
C942        C  0.50100865  0.77822702  0.89346774    -0.09200
C943        C  0.49744814  0.77612720  0.91932183     0.06200
C944        C  0.49188901  0.79662164  0.93333045    -0.13500
Br945      Br  0.44219387  0.84030649  0.92349892    -0.05600
Br946      Br  0.53589027  0.88709812  0.97876284     0.00000
Br947      Br  0.50637572  0.81197316  0.85181315     0.00500
Br948      Br  0.48033392  0.79375644  0.96588414    -0.03900
Br949      Br  0.43799836  0.89539528  0.94554453     0.00600
Br950      Br  0.54080944  0.83248018  0.95445433    -0.03200
Br951      Br  0.51135965  0.85414493  0.88990746    -0.04100
Br952      Br  0.50491107  0.74832911  0.93940148    -0.00100
C953        C  0.50509922  0.11449169  0.05550316     0.01300
C954        C  0.50665646  0.11847278  0.08051721     0.04100
C955        C  0.50319301  0.14168777  0.08986391    -0.11900
C956        C  0.49920991  0.16137616  0.07437119     0.23400
C957        C  0.49709950  0.15748403  0.04950715    -0.12500
C958        C  0.49952069  0.13408474  0.04013930     0.04800
C959        C  0.49998920  0.18612089  0.08435862     0.27300
C960        C  0.47911858  0.19929010  0.08969819    -0.13200
C961        C  0.48037696  0.22199118  0.10085478     0.05400
C962        C  0.50267791  0.23068948  0.11063995    -0.09200
C963        C  0.52325779  0.21457988  0.10698644     0.06200
C964        C  0.52204131  0.19512016  0.09103359    -0.13500
Br965      Br  0.49146193  0.18438071  0.02831858    -0.05600
Br966      Br  0.51517394  0.09259559  0.10222788     0.00000
Br967      Br  0.45095998  0.24079391  0.09922649     0.00500
Br968      Br  0.55088225  0.17881052  0.07961744    -0.03900
Br969      Br  0.49391639  0.12893388  0.00638956     0.00600
Br970      Br  0.50442450  0.14675644  0.12410166    -0.03200
Br971      Br  0.44867797  0.18603858  0.08092087    -0.04100
Br972      Br  0.55160039  0.21107922  0.12699759    -0.00100
C973        C  0.38881405  0.05664472  0.49561239     0.01300
C974        C  0.37035614  0.04003088  0.49281917     0.04100
C975        C  0.34615048  0.04766738  0.49463521    -0.11900
C976        C  0.34024848  0.07190005  0.49917844     0.23400
C977        C  0.35870738  0.08842183  0.50193236    -0.12500
C978        C  0.38281276  0.08090499  0.50003066     0.04800
C979        C  0.31482817  0.08080946  0.49872662     0.27300
C980        C  0.30514447  0.08934926  0.47723847    -0.13200
C981        C  0.28485449  0.10493924  0.47724236     0.05400
C982        C  0.26959012  0.10749996  0.49830868    -0.09200
C983        C  0.27888270  0.09525709  0.51956636     0.06200
C984        C  0.30168345  0.08354942  0.51981452    -0.13500
Br985      Br  0.35106060  0.12159268  0.50821921    -0.05600
Br986      Br  0.37808798  0.00662874  0.48751370     0.00000
Br987      Br  0.28616210  0.12614621  0.44991972     0.00500
Br988      Br  0.31541382  0.07061569  0.54915518    -0.03900
Br989      Br  0.40761236  0.10427847  0.50239151     0.00600
Br990      Br  0.32091959  0.02509736  0.49090210    -0.03200
Br991      Br  0.32194354  0.08124286  0.44774494    -0.04100
Br992      Br  0.26121340  0.09221844  0.54908441    -0.00100
C993        C  0.99611783  0.89560548  0.55777346     0.01300
C994        C  0.99502000  0.89123891  0.58261509     0.04100
C995        C  0.99659071  0.86765495  0.59136714    -0.11900
C996        C  0.99890620  0.84826503  0.57528512     0.23400
C997        C  0.99932584  0.85258327  0.55039605    -0.12500
C998        C  0.99804391  0.87624225  0.54163565     0.04800
C999        C  0.99973845  0.82339446  0.58480994     0.27300
C1000       C  0.02150504  0.81105745  0.58829751    -0.13200
C1001       C  0.02212228  0.78795998  0.59876781     0.05400
C1002       C  0.00114312  0.77815951  0.61014504    -0.09200
C1003       C  0.97982533  0.79371047  0.60865666     0.06200
C1004       C  0.97874329  0.81331170  0.59279900    -0.13500
Br1005     Br  0.00139742  0.82600069  0.52844691    -0.05600
Br1006     Br  0.99017803  0.91757998  0.60459506     0.00000
Br1007     Br  0.05211359  0.77064248  0.59435598     0.00500
Br1008     Br  0.94839279  0.82861960  0.58398710    -0.03900
Br1009     Br  0.99970806  0.88213848  0.50759031     0.00600
Br1010     Br  0.99542643  0.86191246  0.62547900    -0.03200
Br1011     Br  0.05054683  0.82617733  0.57812634    -0.04100
Br1012     Br  0.95431964  0.79711970  0.63193971    -0.00100
C1013       C  0.22147448  0.11127972  0.50292141     0.01300
C1014       C  0.21888447  0.08558169  0.50598668     0.04100
C1015       C  0.19611354  0.07595549  0.51053254    -0.11900
C1016       C  0.17519304  0.08997150  0.50767785     0.23400
C1017       C  0.17675617  0.11405470  0.50149132    -0.12500
C1018       C  0.19912893  0.12502004  0.50066350     0.04800
C1019       C  0.15117370  0.07918334  0.50930914     0.27300
C1020       C  0.14150613  0.06794485  0.48903819    -0.13200
C1021       C  0.11782226  0.06012523  0.48933814     0.05400
C1022       C  0.10323546  0.06431168  0.50964960    -0.09200
C1023       C  0.11318499  0.07486813  0.53028617     0.06200
C1024       C  0.13716901  0.08207166  0.53014852    -0.13500
Br1025     Br  0.14740902  0.13224679  0.49484821    -0.05600
Br1026     Br  0.24315951  0.06083122  0.49974852     0.00000
Br1027     Br  0.10592832  0.04263865  0.46209330     0.00500
Br1028     Br  0.15069359  0.09650769  0.55828799    -0.03900
Br1029     Br  0.19688616  0.15960906  0.50031766     0.00600
Br1030     Br  0.19286094  0.04278618  0.51987604    -0.03200
Br1031     Br  0.16058782  0.06409142  0.46045385    -0.04100
Br1032     Br  0.09376991  0.08085068  0.55829964    -0.00100
C1033       C  0.38735961  0.99666308  0.22989808     0.01300
C1034       C  0.40054589  0.01850270  0.22680938     0.04100
C1035       C  0.41341146  0.02327662  0.20555244    -0.11900
C1036       C  0.41548745  0.00615490  0.18744001     0.23400
C1037       C  0.40465697  0.98417891  0.19031401    -0.12500
C1038       C  0.38857703  0.98046826  0.20934653     0.04800
C1039       C  0.42654135  0.01199019  0.16387224     0.27300
C1040       C  0.41240574  0.02313772  0.14579451    -0.13200
C1041       C  0.42157008  0.02599304  0.12248390     0.05400
C1042       C  0.44496003  0.01777818  0.11706887    -0.09200
C1043       C  0.45932005  0.00715810  0.13530295     0.06200
C1044       C  0.45016574  0.00435972  0.15864995    -0.13500
Br1045     Br  0.41067898  0.95965914  0.16618682    -0.05600
Br1046     Br  0.40352615  0.04261110  0.25131049     0.00000
Br1047     Br  0.40213715  0.04133287  0.09796073     0.00500
Br1048     Br  0.46950374  0.98915181  0.18333576    -0.03900
Br1049     Br  0.36538297  0.95695030  0.19992629     0.00600
Br1050     Br  0.42920919  0.05335110  0.20092389    -0.03200
Br1051     Br  0.38015183  0.03391902  0.15289008    -0.04100
Br1052     Br  0.49099287  0.99488981  0.12788392    -0.00100
C1053       C  0.43736852  0.98566064  0.39688483     0.01300
C1054       C  0.41532359  0.99742211  0.39120888     0.04100
C1055       C  0.40655493  0.99762944  0.36750618    -0.11900
C1056       C  0.41877150  0.98480296  0.34919810     0.23400
C1057       C  0.43987393  0.97164224  0.35516965    -0.12500
C1058       C  0.44953607  0.97263860  0.37861593     0.04800
C1059       C  0.40864462  0.98413394  0.32419464     0.27300
C1060       C  0.38651636  0.97382808  0.32005648    -0.13200
C1061       C  0.37374776  0.97911203  0.29874251     0.05400
C1062       C  0.38558418  0.98841831  0.27765247    -0.09200
C1063       C  0.41097872  0.99217574  0.28106360     0.06200
C1064       C  0.42055014  0.99406706  0.30454361    -0.13500
Br1065     Br  0.45507909  0.95130402  0.33141578    -0.05600
Br1066     Br  0.39572746  0.01212365  0.41604711     0.00000
Br1067     Br  0.33958808  0.97737090  0.30264553     0.00500
Br1068     Br  0.44952355  0.01146796  0.30974719    -0.03900
Br1069     Br  0.48004269  0.95683729  0.38485892     0.00600
Br1070     Br  0.37734045  0.01555176  0.36078831    -0.03200
Br1071     Br  0.37318507  0.95341041  0.34443517    -0.04100
Br1072     Br  0.43569212  0.98963783  0.25679840    -0.00100
C1073       C  0.22033664  0.38949241  0.00215886     0.01300
C1074       C  0.19742743  0.37792992  0.99985676     0.04100
C1075       C  0.17554176  0.39077074  0.00196671    -0.11900
C1076       C  0.17511566  0.41482370  0.00847993     0.23400
C1077       C  0.19650187  0.42704283  0.01050753    -0.12500
C1078       C  0.21879622  0.41538104  0.00562931     0.04800
C1079       C  0.15157695  0.42722798  0.01200119     0.27300
C1080       C  0.13828109  0.43486495  0.99176922    -0.13200
C1081       C  0.11421406  0.44223931  0.99425382     0.05400
C1082       C  0.10346806  0.44250685  0.01712129    -0.09200
C1083       C  0.11708621  0.43592590  0.03752631     0.06200
C1084       C  0.14110809  0.42829892  0.03496341    -0.13500
Br1085     Br  0.19446281  0.46057970  0.01932041    -0.05600
Br1086     Br  0.19344937  0.34377856  0.99876587     0.00000
Br1087     Br  0.09622650  0.45229483  0.96621565     0.00500
Br1088     Br  0.15942431  0.41889212  0.06289284    -0.03900
Br1089     Br  0.24403719  0.43806044  0.00010070     0.00600
Br1090     Br  0.14516343  0.37502400  0.99769773    -0.03200
Br1091     Br  0.15305879  0.43443449  0.96052969    -0.04100
Br1092     Br  0.10240567  0.43586074  0.06882762    -0.00100
C1093       C  0.26843620  0.38925351  0.99847572     0.01300
C1094       C  0.28371175  0.39192224  0.97753221     0.04100
C1095       C  0.30329496  0.40736844  0.97782963    -0.11900
C1096       C  0.31265339  0.41534152  0.99946113     0.23400
C1097       C  0.30017934  0.41139457  0.02064486    -0.12500
C1098       C  0.27773109  0.40021639  0.02016164     0.04800
C1099       C  0.33699469  0.42562814  0.99978567     0.27300
C1100       C  0.35727192  0.41008949  0.99979182    -0.13200
C1101       C  0.38033826  0.41934192  0.99769157     0.05400
C1102       C  0.38333949  0.44426443  0.99557829    -0.09200
C1103       C  0.36306984  0.45985520  0.99602201     0.06200
C1104       C  0.33995501  0.45054214  0.99812424    -0.13500
Br1105     Br  0.31412796  0.42228498  0.05042212    -0.05600
Br1106     Br  0.28565844  0.37148762  0.94965186     0.00000
Br1107     Br  0.40780936  0.39767033  0.99691830     0.00500
Br1108     Br  0.31223861  0.47176475  0.99875882    -0.03900
Br1109     Br  0.26009714  0.40364396  0.04967798     0.00600
Br1110     Br  0.31932483  0.41646231  0.94843484    -0.03200
Br1111     Br  0.35331732  0.37598096  0.00253511    -0.04100
Br1112     Br  0.36702224  0.49402107  0.99494251    -0.00100
C1113       C  0.19883806  0.36052322  0.23256930     0.01300
C1114       C  0.19193259  0.37218639  0.21098618     0.04100
C1115       C  0.18344769  0.39616477  0.21150378    -0.11900
C1116       C  0.18098336  0.40824846  0.23356916     0.23400
C1117       C  0.18948300  0.39721590  0.25479897    -0.12500
C1118       C  0.19886258  0.37367817  0.25422359     0.04800
C1119       C  0.16756261  0.43159097  0.23481782     0.27300
C1120       C  0.17957515  0.45292767  0.23813279    -0.13200
C1121       C  0.16681255  0.47498256  0.24118577     0.05400
C1122       C  0.14066141  0.47582984  0.24228154    -0.09200
C1123       C  0.12925799  0.45346372  0.23651675     0.06200
C1124       C  0.14264169  0.43195755  0.23323990    -0.13500
Br1125     Br  0.18779583  0.41403505  0.28495808    -0.05600
Br1126     Br  0.19240502  0.35522939  0.18087030     0.00000
Br1127     Br  0.18794093  0.50210966  0.23943497     0.00500
Br1128     Br  0.12676945  0.40169128  0.22894005    -0.03900
Br1129     Br  0.21261881  0.35997663  0.28322997     0.00600
Br1130     Br  0.17431131  0.41243630  0.18215748    -0.03200
Br1131     Br  0.21434491  0.45121067  0.23761312    -0.04100
Br1132     Br  0.09505828  0.44910115  0.23681033    -0.00100
C1133       C  0.24198770  0.13982785  0.47553279     0.01300
C1134       C  0.24627505  0.16510902  0.47185098     0.04100
C1135       C  0.24662565  0.17484461  0.44823674    -0.11900
C1136       C  0.23622802  0.16270684  0.42887390     0.23400
C1137       C  0.22631523  0.14048471  0.43335510    -0.12500
C1138       C  0.23197300  0.12795939  0.45470836     0.04800
C1139       C  0.23631887  0.17246800  0.40362522     0.27300
C1140       C  0.22238263  0.19298331  0.39723858    -0.13200
C1141       C  0.22320941  0.20241917  0.37364425     0.05400
C1142       C  0.23657353  0.19030720  0.35555722    -0.09200
C1143       C  0.24848424  0.16842013  0.36152515     0.06200
C1144       C  0.24923009  0.16021016  0.38540784    -0.13500
Br1145     Br  0.20570724  0.12669966  0.40928246    -0.05600
Br1146     Br  0.24776105  0.18928773  0.49672904     0.00000
Br1147     Br  0.20660878  0.23242619  0.36691108     0.00500
Br1148     Br  0.26805069  0.13167513  0.39249837    -0.03900
Br1149     Br  0.22953644  0.09376953  0.45130222     0.00600
Br1150     Br  0.26212098  0.20476726  0.44222491    -0.03200
Br1151     Br  0.20114985  0.20747083  0.42059010    -0.04100
Br1152     Br  0.26245911  0.14814969  0.33678493    -0.00100
C1153       C  0.36792766  0.23767074  0.19993685     0.01300
C1154       C  0.38504273  0.24834062  0.21487073     0.04100
C1155       C  0.40925708  0.24855527  0.20790266    -0.11900
C1156       C  0.41616059  0.23903396  0.18548024     0.23400
C1157       C  0.39919867  0.22710197  0.17131771    -0.12500
C1158       C  0.37522331  0.22622086  0.17868694     0.04800
C1159       C  0.43982660  0.24458703  0.17483744     0.27300
C1160       C  0.44254091  0.26670792  0.16368978    -0.13200
C1161       C  0.46088176  0.26999521  0.14675243     0.05400
C1162       C  0.48074236  0.25264783  0.14434545    -0.09200
C1163       C  0.47806070  0.23075024  0.15806758     0.06200
C1164       C  0.45768675  0.22686237  0.17242363    -0.13500
Br1165     Br  0.40839172  0.21315595  0.14100970    -0.05600
Br1166     Br  0.37503483  0.26360173  0.24427466     0.00000
Br1167     Br  0.45133472  0.29516568  0.12434526     0.00500
Br1168     Br  0.45391781  0.19717708  0.18982174    -0.03900
Br1169     Br  0.35193388  0.21052043  0.15900522     0.00600
Br1170     Br  0.43279106  0.26303382  0.22826027    -0.03200
Br1171     Br  0.41895531  0.29210972  0.17029448    -0.04100
Br1172     Br  0.50223704  0.20549539  0.15995923    -0.00100
C1173       C  0.30908030  0.13911802  0.25920702     0.01300
C1174       C  0.29161305  0.12129117  0.26024021     0.04100
C1175       C  0.29841368  0.09685449  0.25818699    -0.11900
C1176       C  0.32264322  0.09008036  0.25499581     0.23400
C1177       C  0.34000612  0.10791056  0.25381045    -0.12500
C1178       C  0.33331180  0.13224806  0.25596669     0.04800
C1179       C  0.33049679  0.06430731  0.25493835     0.27300
C1180       C  0.33794773  0.05368002  0.27636884    -0.13200
C1181       C  0.35282975  0.03288683  0.27616771     0.05400
C1182       C  0.35495024  0.01779974  0.25492218    -0.09200
C1183       C  0.34363229  0.02810252  0.23362947     0.06200
C1184       C  0.33333816  0.05157722  0.23356867    -0.13500
Br1185     Br  0.37317023  0.09903784  0.24915300    -0.05600
Br1186     Br  0.25819785  0.13027462  0.26301048     0.00000
Br1187     Br  0.37428278  0.03356871  0.30328591     0.00500
Br1188     Br  0.32246876  0.06676256  0.20412823    -0.03900
Br1189     Br  0.35765424  0.15617585  0.25512979     0.00600
Br1190     Br  0.27466527  0.07250861  0.25956761    -0.03200
Br1191     Br  0.32951961  0.06976997  0.30615690    -0.04100
Br1192     Br  0.33962439  0.01100980  0.20395941    -0.00100
C1193       C  0.27165870  0.30344123  0.13684833     0.01300
C1194       C  0.28030211  0.32584532  0.13004254     0.04100
C1195       C  0.27909900  0.33308264  0.10587176    -0.11900
C1196       C  0.26863348  0.31818673  0.08855081     0.23400
C1197       C  0.26152738  0.29508303  0.09508527    -0.12500
C1198       C  0.26328374  0.28762964  0.11919294     0.04800
C1199       C  0.26112396  0.32872019  0.06507144     0.27300
C1200       C  0.23906406  0.34080200  0.06356738    -0.13200
C1201       C  0.23330058  0.35572359  0.04373747     0.05400
C1202       C  0.24883456  0.35657134  0.02265855    -0.09200
C1203       C  0.27108447  0.34270182  0.02493145     0.06200
C1204       C  0.27673825  0.32906260  0.04570601    -0.13500
Br1205     Br  0.24756596  0.27460921  0.07131978    -0.05600
Br1206     Br  0.29244089  0.34711173  0.15410855     0.00000
Br1207     Br  0.20711945  0.37765612  0.05210975     0.00500
Br1208     Br  0.30576414  0.30950409  0.04789522    -0.03900
Br1209     Br  0.25303834  0.25623769  0.12830235     0.00600
Br1210     Br  0.29017901  0.36415506  0.09666922    -0.03200
Br1211     Br  0.21740211  0.33779416  0.09072585    -0.04100
Br1212     Br  0.29444603  0.33952319  0.99964364    -0.00100
C1213       C  0.00217829  0.27974729  0.38893584     0.01300
C1214       C  0.00104005  0.28025884  0.41513305     0.04100
C1215       C  0.99703763  0.30213052  0.42755042    -0.11900
C1216       C  0.99749767  0.32405254  0.41553695     0.23400
C1217       C  0.00231102  0.32456776  0.39102488    -0.12500
C1218       C  0.00423250  0.30312960  0.37768432     0.04800
C1219       C  0.99417161  0.34705002  0.42876582     0.27300
C1220       C  0.97104865  0.35700863  0.43255146    -0.13200
C1221       C  0.96815469  0.38020420  0.44211490     0.05400
C1222       C  0.98842478  0.39354685  0.44806709    -0.09200
C1223       C  0.01153427  0.38302936  0.44545086     0.06200
C1224       C  0.01435491  0.35986985  0.43585292    -0.13500
Br1225     Br  0.00403042  0.35565386  0.37546257    -0.05600
Br1226     Br  0.00888989  0.25395500  0.43708565     0.00000
Br1227     Br  0.93634924  0.39407040  0.44569563     0.00500
Br1228     Br  0.04592896  0.34562236  0.43200374    -0.03900
Br1229     Br  0.00492984  0.30858010  0.34348664     0.00600
Br1230     Br  0.99167681  0.30283914  0.46191042    -0.03200
Br1231     Br  0.94324725  0.33906552  0.42441094    -0.04100
Br1232     Br  0.03947947  0.39986566  0.45577835    -0.00100
C1233       C  0.00393475  0.23159129  0.38802129     0.01300
C1234       C  0.02377849  0.21399176  0.38812984     0.04100
C1235       C  0.02330351  0.19347726  0.40298196    -0.11900
C1236       C  0.00214824  0.18672139  0.41389637     0.23400
C1237       C  0.98207915  0.20200280  0.41305574    -0.12500
C1238       C  0.98299059  0.22441354  0.40138318     0.04800
C1239       C  0.00032746  0.16198141  0.42348528     0.27300
C1240       C  0.99230231  0.14378577  0.40825825    -0.13200
C1241       C  0.99260128  0.11985953  0.41610896     0.05400
C1242       C  0.00065169  0.11389622  0.43954417    -0.09200
C1243       C  0.00804737  0.13240833  0.45505212     0.06200
C1244       C  0.00794104  0.15633276  0.44695197    -0.13500
Br1245     Br  0.95323141  0.19177711  0.42881380    -0.05600
Br1246     Br  0.04977335  0.21079441  0.36515429     0.00000
Br1247     Br  0.98319888  0.09543513  0.39379197     0.00500
Br1248     Br  0.01835706  0.18157627  0.46779357    -0.03900
Br1249     Br  0.95514275  0.24489150  0.40687566     0.00600
Br1250     Br  0.05143161  0.17263693  0.40726592    -0.03200
Br1251     Br  0.98118073  0.15177380  0.37629167    -0.04100
Br1252     Br  0.01736362  0.12557351  0.48781509    -0.00100
C1253       C  0.02596923  0.25891475  0.35596471     0.01300
C1254       C  0.02627748  0.25920554  0.32973501     0.04100
C1255       C  0.04807290  0.26152915  0.31696933    -0.11900
C1256       C  0.06993681  0.26340859  0.32900827     0.23400
C1257       C  0.07025901  0.26468737  0.35399772    -0.12500
C1258       C  0.04885935  0.26351847  0.36730826     0.04800
C1259       C  0.09302478  0.26371478  0.31553510     0.27300
C1260       C  0.10276740  0.24236765  0.30576955    -0.13200
C1261       C  0.12570779  0.24203752  0.29546342     0.05400
C1262       C  0.13997564  0.26254685  0.29648471    -0.09200
C1263       C  0.12976359  0.28426039  0.30524067     0.06200
C1264       C  0.10612038  0.28492133  0.31406042    -0.13500
Br1265     Br  0.10117136  0.26573234  0.37009966    -0.05600
Br1266     Br  0.99848333  0.26072629  0.30853079     0.00000
Br1267     Br  0.13699006  0.21361080  0.27887659     0.00500
Br1268     Br  0.09177129  0.31470939  0.32504780    -0.03900
Br1269     Br  0.05396848  0.26446528  0.40152681     0.00600
Br1270     Br  0.04866328  0.26335309  0.28217728    -0.03200
Br1271     Br  0.08516761  0.21315969  0.30742936    -0.04100
Br1272     Br  0.14836265  0.31283833  0.30697902    -0.00100
C1273       C  0.88894591  0.99180692  0.22005000     0.01300
C1274       C  0.90104100  0.96881121  0.21627561     0.04100
C1275       C  0.91232398  0.96300762  0.19426852    -0.11900
C1276       C  0.91468971  0.98031528  0.17641314     0.23400
C1277       C  0.90508953  0.00325575  0.17996658    -0.12500
C1278       C  0.88976055  0.00807589  0.19946274     0.04800
C1279       C  0.92591372  0.97438852  0.15290123     0.27300
C1280       C  0.95046568  0.97797492  0.14944479    -0.13200
C1281       C  0.96042637  0.97589439  0.12635754     0.05400
C1282       C  0.94584252  0.97006963  0.10650979    -0.09200
C1283       C  0.92135406  0.96574784  0.11016012     0.06200
C1284       C  0.91144046  0.96794659  0.13327341    -0.13500
Br1285     Br  0.91165444  0.02771259  0.15617699    -0.05600
Br1286     Br  0.90408061  0.94414881  0.24058147     0.00000
Br1287     Br  0.99368048  0.98315764  0.12184835     0.00500
Br1288     Br  0.87776330  0.96302219  0.13801533    -0.03900
Br1289     Br  0.86667383  0.03331925  0.19053080     0.00600
Br1290     Br  0.92516017  0.93112731  0.18814191    -0.03200
Br1291     Br  0.97002985  0.98719004  0.17630278    -0.04100
Br1292     Br  0.90133834  0.95651145  0.08361426    -0.00100
C1293       C  0.88802009  0.99998192  0.26814638     0.01300
C1294       C  0.87608698  0.01020258  0.28901849     0.04100
C1295       C  0.88884914  0.01615079  0.30990466    -0.11900
C1296       C  0.91149354  0.00586013  0.31420972     0.23400
C1297       C  0.92334637  0.99434389  0.29510209    -0.12500
C1298       C  0.91342532  0.99495966  0.27161790     0.04800
C1299       C  0.92206207  0.00659923  0.33902612     0.27300
C1300       C  0.94281946  0.01969997  0.34387360    -0.13200
C1301       C  0.95277404  0.01988878  0.36724803     0.05400
C1302       C  0.94059150  0.00928582  0.38659198    -0.09200
C1303       C  0.91874583  0.99798382  0.38196024     0.06200
C1304       C  0.91042700  0.99530449  0.35830486    -0.13500
Br1305     Br  0.95293731  0.97671552  0.30129725    -0.05600
Br1306     Br  0.84182805  0.01234782  0.29325455     0.00000
Br1307     Br  0.98381023  0.03332254  0.37210282     0.00500
Br1308     Br  0.88294516  0.97585612  0.35281424    -0.03900
Br1309     Br  0.93767847  0.99327234  0.24687709     0.00600
Br1310     Br  0.87472105  0.03755912  0.33353364    -0.03200
Br1311     Br  0.95704871  0.03832748  0.31874820    -0.04100
Br1312     Br  0.89872508  0.98793326  0.40812581    -0.00100
C1313       C  0.80646285  0.13998580  0.23496387     0.01300
C1314       C  0.81064690  0.12692975  0.21360607     0.04100
C1315       C  0.81909882  0.10300650  0.21472909    -0.11900
C1316       C  0.82328642  0.09190944  0.23711800     0.23400
C1317       C  0.81850446  0.10464680  0.25841109    -0.12500
C1318       C  0.81020810  0.12862284  0.25738756     0.04800
C1319       C  0.83490653  0.06768291  0.23842497     0.27300
C1320       C  0.82139810  0.04701489  0.23686334    -0.13200
C1321       C  0.83231670  0.02393020  0.23946642     0.05400
C1322       C  0.85821892  0.02107720  0.24142841    -0.09200
C1323       C  0.87128467  0.04319021  0.24284684     0.06200
C1324       C  0.85957569  0.06577408  0.24191579    -0.13500
Br1325     Br  0.82371414  0.08910184  0.28901999    -0.05600
Br1326     Br  0.80603634  0.14196253  0.18260591     0.00000
Br1327     Br  0.80918134  0.99896860  0.24399183     0.00500
Br1328     Br  0.87751352  0.09501726  0.24410569    -0.03900
Br1329     Br  0.80305313  0.14536268  0.28686543     0.00600
Br1330     Br  0.82545749  0.08553463  0.18555568    -0.03200
Br1331     Br  0.78719033  0.05112222  0.23184539    -0.04100
Br1332     Br  0.90583898  0.04464526  0.24254429    -0.00100
C1333       C  0.97809521  0.25349443  0.35737715     0.01300
C1334       C  0.97317763  0.23101258  0.34542358     0.04100
C1335       C  0.95033232  0.22611868  0.33595730    -0.11900
C1336       C  0.93283729  0.24423315  0.33408460     0.23400
C1337       C  0.93770869  0.26707857  0.34237697    -0.12500
C1338       C  0.95823847  0.27101689  0.35652987     0.04800
C1339       C  0.90868323  0.23936023  0.32420280     0.27300
C1340       C  0.90379450  0.24336957  0.29973674    -0.13200
C1341       C  0.88029497  0.24156162  0.29092458     0.05400
C1342       C  0.86156443  0.23518842  0.30647116    -0.09200
C1343       C  0.86659351  0.23065242  0.33089241     0.06200
C1344       C  0.89009681  0.23279779  0.33973265    -0.13500
Br1345     Br  0.91452641  0.29274811  0.33541559    -0.05600
Br1346     Br  0.99711994  0.20652982  0.33859495     0.00000
Br1347     Br  0.87362006  0.24966350  0.25782827     0.00500
Br1348     Br  0.89693394  0.22703956  0.37321801    -0.03900
Br1349     Br  0.95197566  0.29763297  0.37792381     0.00600
Br1350     Br  0.94268317  0.19448831  0.32459255    -0.03200
Br1351     Br  0.92933790  0.25213936  0.27855266    -0.04100
Br1352     Br  0.84147077  0.22096404  0.35213411    -0.00100
C1353       C  0.64748209  0.27010713  0.18669489     0.01300
C1354       C  0.63855031  0.24744642  0.18063843     0.04100
C1355       C  0.61499535  0.24553803  0.17207756    -0.11900
C1356       C  0.60012343  0.26612526  0.16956444     0.23400
C1357       C  0.60896626  0.28874623  0.17548782    -0.12500
C1358       C  0.63264511  0.29080040  0.18378616     0.04800
C1359       C  0.57555571  0.26411259  0.15950379     0.27300
C1360       C  0.57177765  0.26762030  0.13503984    -0.13200
C1361       C  0.54900168  0.26432975  0.12475502     0.05400
C1362       C  0.52833623  0.25835195  0.13919441    -0.09200
C1363       C  0.53275275  0.25754543  0.16504143     0.06200
C1364       C  0.55632431  0.25895725  0.17437897    -0.13500
Br1365     Br  0.58844316  0.31688285  0.17218945    -0.05600
Br1366     Br  0.65786393  0.21854746  0.18515594     0.00000
Br1367     Br  0.54930264  0.26483802  0.09009108     0.00500
Br1368     Br  0.56302147  0.25469646  0.20835029    -0.03900
Br1369     Br  0.64496987  0.32217924  0.18988935     0.00600
Br1370     Br  0.60294601  0.21452733  0.16419346    -0.03200
Br1371     Br  0.59911437  0.27551341  0.11539116    -0.04100
Br1372     Br  0.50888301  0.25914729  0.19035584    -0.00100
C1373       C  0.00922004  0.26524878  0.89248395     0.01300
C1374       C  0.00819772  0.26626506  0.91868091     0.04100
C1375       C  0.00960372  0.28842248  0.93096922    -0.11900
C1376       C  0.01383508  0.30966347  0.91863130     0.23400
C1377       C  0.01823971  0.30893682  0.89400673    -0.12500
C1378       C  0.01624185  0.28735502  0.88099764     0.04800
C1379       C  0.01357485  0.33312062  0.93149446     0.27300
C1380       C  0.99162713  0.34496526  0.93673283    -0.13200
C1381       C  0.99129471  0.36812444  0.94663327     0.05400
C1382       C  0.01293027  0.37971600  0.95138723    -0.09200
C1383       C  0.03493855  0.36736843  0.94729478     0.06200
C1384       C  0.03521353  0.34409762  0.93752408    -0.13500
Br1385     Br  0.02481346  0.33882808  0.87776452    -0.05600
Br1386     Br  0.00927639  0.23914771  0.94077568     0.00000
Br1387     Br  0.96103250  0.38345361  0.95474127     0.00500
Br1388     Br  0.06522126  0.32711770  0.93222104    -0.03900
Br1389     Br  0.01920965  0.29135062  0.84668091     0.00600
Br1390     Br  0.00678657  0.29033896  0.96563159    -0.03200
Br1391     Br  0.96185668  0.32941060  0.93065814    -0.04100
Br1392     Br  0.06486120  0.38261634  0.95385555    -0.00100
C1393       C  0.00137867  0.21810669  0.89215256     0.01300
C1394       C  0.01792250  0.19753484  0.89384383     0.04100
C1395       C  0.01326854  0.17830158  0.90942823    -0.11900
C1396       C  0.99025597  0.17499317  0.91813322     0.23400
C1397       C  0.97277535  0.19297771  0.91487085    -0.12500
C1398       C  0.97865665  0.21497945  0.90417896     0.04800
C1399       C  0.98431932  0.15157195  0.92907241     0.27300
C1400       C  0.97770957  0.13249365  0.91416253    -0.13200
C1401       C  0.97513361  0.10941731  0.92381621     0.05400
C1402       C  0.97917236  0.10522761  0.94850464    -0.09200
C1403       C  0.98496909  0.12456795  0.96357916     0.06200
C1404       C  0.98747772  0.14768066  0.95385756    -0.13500
Br1405     Br  0.94059897  0.18720510  0.92565398    -0.05600
Br1406     Br  0.04375100  0.18876663  0.87215611     0.00000
Br1407     Br  0.96583648  0.08359017  0.90310782     0.00500
Br1408     Br  0.99647526  0.17391870  0.97412681    -0.03900
Br1409     Br  0.95533682  0.24058722  0.90939824     0.00600
Br1410     Br  0.03812590  0.15479192  0.91781874    -0.03200
Br1411     Br  0.97292164  0.13794524  0.88027062    -0.04100
Br1412     Br  0.99148599  0.11918739  0.99719546    -0.00100
C1413       C  0.14412258  0.22930319  0.80188387     0.01300
C1414       C  0.13099077  0.25122726  0.80232293     0.04100
C1415       C  0.10783950  0.25242390  0.81219979    -0.11900
C1416       C  0.09760958  0.23179242  0.82194108     0.23400
C1417       C  0.11050021  0.20973519  0.82105291    -0.12500
C1418       C  0.13364876  0.20846825  0.81100107     0.04800
C1419       C  0.07428796  0.23397839  0.83495937     0.27300
C1420       C  0.07424552  0.23964855  0.85930569    -0.13200
C1421       C  0.05259165  0.24112595  0.87228084     0.05400
C1422       C  0.02935740  0.23939991  0.86058060    -0.09200
C1423       C  0.03038019  0.23695605  0.83457764     0.06200
C1424       C  0.05247451  0.23213675  0.82279625    -0.13500
Br1425     Br  0.09666106  0.18136332  0.83412325    -0.05600
Br1426     Br  0.14449147  0.27969594  0.78888722     0.00000
Br1427     Br  0.05744979  0.24154581  0.90656523     0.00500
Br1428     Br  0.05350996  0.22372374  0.78912958    -0.03900
Br1429     Br  0.15155449  0.17845898  0.81103374     0.00600
Br1430     Br  0.09015131  0.28252043  0.81292921    -0.03200
Br1431     Br  0.10484747  0.24434338  0.87502730    -0.04100
Br1432     Br  0.00451666  0.24448683  0.81215162    -0.00100
C1433       C  0.24023851  0.35914109  0.97478599     0.01300
C1434       C  0.23282910  0.37236449  0.95333841     0.04100
C1435       C  0.22957265  0.36096197  0.93097115    -0.11900
C1436       C  0.23403241  0.33644219  0.92845251     0.23400
C1437       C  0.23949204  0.32258428  0.94873172    -0.12500
C1438       C  0.24142042  0.33312935  0.97182187     0.04800
C1439       C  0.23313008  0.32527748  0.90411075     0.27300
C1440       C  0.21115717  0.31826863  0.89418383    -0.13200
C1441       C  0.21027075  0.30880480  0.87074934     0.05400
C1442       C  0.23143736  0.30624438  0.85707078    -0.09200
C1443       C  0.25345474  0.31289407  0.86723937     0.06200
C1444       C  0.25426412  0.32225760  0.89061885    -0.13500
Br1445     Br  0.24334341  0.28827317  0.94413257    -0.05600
Br1446     Br  0.23068066  0.40687591  0.95125635     0.00000
Br1447     Br  0.17983472  0.30018296  0.85723032     0.00500
Br1448     Br  0.28466601  0.33017856  0.90433418    -0.03900
Br1449     Br  0.24137190  0.30911598  0.99723459     0.00600
Br1450     Br  0.22055049  0.37915884  0.90246066    -0.03200
Br1451     Br  0.18234339  0.32147110  0.91294551    -0.04100
Br1452     Br  0.28301927  0.30778437  0.84989536    -0.00100
C1453       C  0.25122786  0.14107136  0.52370238     0.01300
C1454       C  0.27452543  0.15151417  0.52707743     0.04100
C1455       C  0.28178108  0.16104398  0.54944219    -0.11900
C1456       C  0.26535331  0.16439679  0.56800192     0.23400
C1457       C  0.24183535  0.15741942  0.56457783    -0.12500
C1458       C  0.23556257  0.14327810  0.54462152     0.04800
C1459       C  0.27240203  0.17477776  0.59168155     0.27300
C1460       C  0.27956553  0.15961435  0.61084003    -0.13200
C1461       C  0.28172246  0.16879562  0.63434744     0.05400
C1462       C  0.27649053  0.19322664  0.63896712    -0.09200
C1463       C  0.27058123  0.20859839  0.61943427     0.06200
C1464       C  0.26872539  0.19940262  0.59596167    -0.13500
Br1465     Br  0.21850943  0.16600982  0.58910680    -0.05600
Br1466     Br  0.29758122  0.15481202  0.50169683     0.00000
Br1467     Br  0.29260314  0.14799758  0.66002720     0.00500
Br1468     Br  0.25985976  0.22023950  0.56956144    -0.03900
Br1469     Br  0.20878910  0.12349007  0.55312003     0.00600
Br1470     Br  0.31453837  0.16987434  0.55508817    -0.03200
Br1471     Br  0.28588778  0.12608461  0.60481800    -0.04100
Br1472     Br  0.26312735  0.24210195  0.62472601    -0.00100
C1473       C  0.49880496  0.27376531  0.60330019     0.01300
C1474       C  0.48426339  0.29541702  0.60489926     0.04100
C1475       C  0.49299222  0.31742330  0.59670747    -0.11900
C1476       C  0.51389731  0.31795292  0.58301457     0.23400
C1477       C  0.52506599  0.29617583  0.57651879    -0.12500
C1478       C  0.51529682  0.27437001  0.58390777     0.04800
C1479       C  0.52000283  0.34073609  0.57083614     0.27300
C1480       C  0.50990854  0.34608258  0.54812393    -0.13200
C1481       C  0.51194897  0.36909823  0.53815423     0.05400
C1482       C  0.52389424  0.38701813  0.55089576    -0.09200
C1483       C  0.53467308  0.38147530  0.57321322     0.06200
C1484       C  0.53276215  0.35836351  0.58314735    -0.13500
Br1485     Br  0.55210063  0.29597692  0.55521282    -0.05600
Br1486     Br  0.45006118  0.29626933  0.60948259     0.00000
Br1487     Br  0.49677733  0.37658698  0.50778522     0.00500
Br1488     Br  0.54654780  0.35099414  0.61412554    -0.03900
Br1489     Br  0.51253117  0.25167164  0.55796499     0.00600
Br1490     Br  0.47550982  0.34714563  0.60313221    -0.03200
Br1491     Br  0.49172350  0.32231942  0.53141953    -0.04100
Br1492     Br  0.55199597  0.40562084  0.59012719    -0.00100
C1493       C  0.48911978  0.11058943  0.55751054     0.01300
C1494       C  0.47481755  0.11752205  0.57709763     0.04100
C1495       C  0.47564583  0.14105052  0.58584240    -0.11900
C1496       C  0.49072139  0.15771340  0.57491804     0.23400
C1497       C  0.50429561  0.15102443  0.55471244    -0.12500
C1498       C  0.50360004  0.12742884  0.54608529     0.04800
C1499       C  0.49372578  0.18160577  0.58592615     0.27300
C1500       C  0.47784066  0.20046763  0.58046581    -0.13200
C1501       C  0.47948196  0.22268079  0.59235343     0.05400
C1502       C  0.49779684  0.22695235  0.61010475    -0.09200
C1503       C  0.51238103  0.20596018  0.61661088     0.06200
C1504       C  0.51129553  0.18450048  0.60340373    -0.13500
Br1505     Br  0.52447025  0.17406441  0.53958598    -0.05600
Br1506     Br  0.45540254  0.09427435  0.59293590     0.00000
Br1507     Br  0.45459181  0.24540056  0.58390277     0.00500
Br1508     Br  0.53320829  0.15767601  0.60997612    -0.03900
Br1509     Br  0.52274539  0.11802223  0.51883082     0.00600
Br1510     Br  0.45694752  0.15011503  0.61346531    -0.03200
Br1511     Br  0.45351663  0.19513954  0.55628888    -0.04100
Br1512     Br  0.53011966  0.20162057  0.64623113    -0.00100
C1513       C  0.47769222  0.25632510  0.64089007     0.01300
C1514       C  0.47407865  0.27801133  0.65476180     0.04100
C1515       C  0.45198414  0.28273137  0.66663425    -0.11900
C1516       C  0.43282488  0.26714758  0.66389699     0.23400
C1517       C  0.43655886  0.24559341  0.65167398    -0.12500
C1518       C  0.45947927  0.23886892  0.64373612     0.04800
C1519       C  0.40967527  0.27111039  0.67664197     0.27300
C1520       C  0.40596176  0.25927099  0.69865923    -0.13200
C1521       C  0.38296678  0.25906268  0.70883583     0.05400
C1522       C  0.36358745  0.27072446  0.69709179    -0.09200
C1523       C  0.36739172  0.28336608  0.67567867     0.06200
C1524       C  0.39035143  0.28355600  0.66544520    -0.13500
Br1525     Br  0.41031246  0.22407155  0.64728685    -0.05600
Br1526     Br  0.49830173  0.30213148  0.65815874     0.00000
Br1527     Br  0.37767147  0.24165399  0.73815789     0.00500
Br1528     Br  0.39479737  0.30013224  0.63566837    -0.03900
Br1529     Br  0.46604099  0.20495610  0.64732972     0.00600
Br1530     Br  0.44708048  0.31130129  0.68554930    -0.03200
Br1531     Br  0.43224135  0.24221808  0.71416795    -0.04100
Br1532     Br  0.34092082  0.30029978  0.66036000    -0.00100
C1533       C  0.26068771  0.85617182  0.97750781     0.01300
C1534       C  0.26059812  0.83014518  0.97510831     0.04100
C1535       C  0.26397589  0.81904534  0.95240198    -0.11900
C1536       C  0.26785581  0.83260648  0.93174924     0.23400
C1537       C  0.27014001  0.85732654  0.93360765    -0.12500
C1538       C  0.26734732  0.86901651  0.95590610     0.04800
C1539       C  0.26961745  0.82103348  0.90765981     0.27300
C1540       C  0.29209441  0.81779350  0.89657446    -0.13200
C1541       C  0.29356589  0.80955868  0.87273096     0.05400
C1542       C  0.27251277  0.80442565  0.85980740    -0.09200
C1543       C  0.25012286  0.80662744  0.87130804     0.06200
C1544       C  0.24869570  0.81487003  0.89511439    -0.13500
Br1545     Br  0.27499312  0.87545612  0.90428720    -0.05600
Br1546     Br  0.25955677  0.80692880  0.00112708     0.00000
Br1547     Br  0.32446417  0.80632805  0.85758548     0.00500
Br1548     Br  0.21795627  0.81748417  0.91052621    -0.03900
Br1549     Br  0.26950893  0.90342848  0.95363415     0.00600
Br1550     Br  0.26423292  0.78447804  0.94884007    -0.03200
Br1551     Br  0.32084578  0.82499799  0.91413630    -0.04100
Br1552     Br  0.22133910  0.79715011  0.85496314    -0.00100
C1553       C  0.39026458  0.94626502  0.02100648     0.01300
C1554       C  0.38076191  0.94223229  0.99787299     0.04100
C1555       C  0.35837196  0.93163524  0.99520972    -0.11900
C1556       C  0.34525898  0.92507769  0.01558713     0.23400
C1557       C  0.35437971  0.92968808  0.03869848    -0.12500
C1558       C  0.37680358  0.94030447  0.04142211     0.04800
C1559       C  0.32249810  0.91217161  0.01246475     0.27300
C1560       C  0.30050352  0.92460979  0.01269854    -0.13200
C1561       C  0.27884056  0.91277343  0.00797720     0.05400
C1562       C  0.27862914  0.88682495  0.00511345    -0.09200
C1563       C  0.30209482  0.87495004  0.00468028     0.06200
C1564       C  0.32333779  0.88764701  0.00797965    -0.13500
Br1565     Br  0.33634595  0.92104398  0.06663628    -0.05600
Br1566     Br  0.39778520  0.95216787  0.96964840     0.00000
Br1567     Br  0.25230192  0.93521736  0.00210723     0.00500
Br1568     Br  0.35446267  0.87128749  0.00807451    -0.03900
Br1569     Br  0.38949886  0.94555150  0.07318997     0.00600
Br1570     Br  0.34559394  0.92573226  0.96358464    -0.03200
Br1571     Br  0.30086203  0.95875879  0.01896904    -0.04100
Br1572     Br  0.30737903  0.84068797  0.00360699    -0.00100
C1573       C  0.11506808  0.94446847  0.98532119     0.01300
C1574       C  0.13401399  0.95915564  0.99255130     0.04100
C1575       C  0.15724922  0.94921527  0.99588515    -0.11900
C1576       C  0.16160457  0.92452168  0.99244014     0.23400
C1577       C  0.14269126  0.90985448  0.98529973    -0.12500
C1578       C  0.11965312  0.91982829  0.98136820     0.04800
C1579       C  0.18618055  0.91386614  0.99503984     0.27300
C1580       C  0.19868413  0.90681694  0.97459086    -0.13200
C1581       C  0.21736971  0.88964267  0.97649850     0.05400
C1582       C  0.23077293  0.88671787  0.99876669    -0.09200
C1583       C  0.21901049  0.89746546  0.01945748     0.06200
C1584       C  0.19592454  0.90832831  0.01757682    -0.13500
Br1585     Br  0.14831466  0.87587900  0.98102432    -0.05600
Br1586     Br  0.12812759  0.99269622  0.99900836     0.00000
Br1587     Br  0.21433533  0.86644450  0.95095574     0.00500
Br1588     Br  0.17737843  0.91586924  0.04590384    -0.03900
Br1589     Br  0.09471494  0.89976514  0.96923642     0.00600
Br1590     Br  0.18324763  0.96934133  0.00508715    -0.03200
Br1591     Br  0.18788097  0.91833592  0.94349222    -0.04100
Br1592     Br  0.23370599  0.90072559  0.05059216    -0.00100
C1593       C  0.25115346  0.85485816  0.02507785     0.01300
C1594       C  0.22890063  0.84237074  0.02815052     0.04100
C1595       C  0.22348411  0.83061492  0.04987899    -0.11900
C1596       C  0.24093502  0.82753209  0.06766311     0.23400
C1597       C  0.26345754  0.83699128  0.06435977    -0.12500
C1598       C  0.26720832  0.85349444  0.04577731     0.04800
C1599       C  0.23526299  0.81663345  0.09120981     0.27300
C1600       C  0.22974242  0.83161954  0.11084412    -0.13200
C1601       C  0.22749933  0.82188188  0.13395453     0.05400
C1602       C  0.23110372  0.79706423  0.13765417    -0.09200
C1603       C  0.23599143  0.78196103  0.11782311     0.06200
C1604       C  0.23791361  0.79176704  0.09464524    -0.13500
Br1605     Br  0.28852339  0.82909315  0.08750945    -0.05600
Br1606     Br  0.20525941  0.83880548  0.00315224     0.00000
Br1607     Br  0.21897668  0.84268007  0.16038862     0.00500
Br1608     Br  0.24540229  0.77143816  0.06763230    -0.03900
Br1609     Br  0.28937249  0.87746483  0.05667277     0.00600
Br1610     Br  0.19206271  0.81813367  0.05563358    -0.03200
Br1611     Br  0.22610503  0.86573223  0.10618902    -0.04100
Br1612     Br  0.24206991  0.74807931  0.12238764    -0.00100
C1613       C  0.29872523  0.85581787  0.23507924     0.01300
C1614       C  0.29960829  0.86638644  0.25806084     0.04100
C1615       C  0.30908950  0.88932269  0.26103796    -0.11900
C1616       C  0.31779409  0.90190722  0.24110064     0.23400
C1617       C  0.31614805  0.89167703  0.21802852    -0.12500
C1618       C  0.30667250  0.86872869  0.21502265     0.04800
C1619       C  0.33023458  0.92501904  0.24473287     0.27300
C1620       C  0.31760193  0.94695598  0.24377873    -0.13200
C1621       C  0.32920234  0.96888151  0.24811145     0.05400
C1622       C  0.35513610  0.96949955  0.25062795    -0.09200
C1623       C  0.36718974  0.94616786  0.25224937     0.06200
C1624       C  0.35465706  0.92464568  0.25004308    -0.13500
Br1625     Br  0.32723466  0.90885683  0.19048056    -0.05600
Br1626     Br  0.28717082  0.84976672  0.28550078     0.00000
Br1627     Br  0.30675793  0.99521782  0.25453821     0.00500
Br1628     Br  0.37114152  0.89376928  0.25303542    -0.03900
Br1629     Br  0.30585101  0.85443400  0.18354598     0.00600
Br1630     Br  0.31053960  0.90352014  0.29251544    -0.03200
Br1631     Br  0.28354316  0.94621999  0.23729821    -0.04100
Br1632     Br  0.40155514  0.94157378  0.25379548    -0.00100
C1633       C  0.19859439  0.63431427  0.26611108     0.01300
C1634       C  0.21293767  0.61412106  0.25978070     0.04100
C1635       C  0.20265530  0.59145074  0.25785137    -0.11900
C1636       C  0.17801572  0.58895542  0.26192928     0.23400
C1637       C  0.16380084  0.60898429  0.26868026    -0.12500
C1638       C  0.17405226  0.63156560  0.27088039     0.04800
C1639       C  0.16644128  0.56573440  0.25760326     0.27300
C1640       C  0.15471310  0.56203345  0.23588345    -0.13200
C1641       C  0.13872409  0.54311836  0.23338584     0.05400
C1642       C  0.13922370  0.52314676  0.25026408    -0.09200
C1643       C  0.15321383  0.52706265  0.27188183     0.06200
C1644       C  0.16511078  0.54870830  0.27582408    -0.13500
Br1645     Br  0.13004423  0.60546006  0.27440451    -0.05600
Br1646     Br  0.24623879  0.61766540  0.25192979     0.00000
Br1647     Br  0.11364395  0.55165227  0.21045852     0.00500
Br1648     Br  0.18064940  0.55521198  0.30615486    -0.03900
Br1649     Br  0.15440827  0.65861913  0.28096118     0.00600
Br1650     Br  0.22199220  0.56386359  0.24882245    -0.03200
Br1651     Br  0.15955432  0.58462709  0.20995468    -0.04100
Br1652     Br  0.15980746  0.50292998  0.29602720    -0.00100
C1653       C  0.02405257  0.73994318  0.13615176     0.01300
C1654       C  0.03800339  0.71761426  0.13795541     0.04100
C1655       C  0.05668415  0.71493374  0.15482316    -0.11900
C1656       C  0.06832277  0.73501038  0.16322780     0.23400
C1657       C  0.05796014  0.75768285  0.15897298    -0.12500
C1658       C  0.03515816  0.76007387  0.14788842     0.04800
C1659       C  0.09259073  0.73221896  0.17437763     0.27300
C1660       C  0.09572358  0.73482968  0.19931739    -0.13200
C1661       C  0.11881979  0.73295739  0.20956205     0.05400
C1662       C  0.13891632  0.72764210  0.19499850    -0.09200
C1663       C  0.13557138  0.72393947  0.17018394     0.06200
C1664       C  0.11261239  0.72665916  0.15986788    -0.13500
Br1665     Br  0.07546796  0.78556755  0.16850024    -0.05600
Br1666     Br  0.04115852  0.69274263  0.11385105     0.00000
Br1667     Br  0.12285829  0.73901401  0.24339249     0.00500
Br1668     Br  0.10865390  0.72300647  0.12566270    -0.03900
Br1669     Br  0.02010145  0.79133891  0.15155046     0.00600
Br1670     Br  0.06845262  0.68343049  0.16447413    -0.03200
Br1671     Br  0.06821443  0.74082344  0.21939523    -0.04100
Br1672     Br  0.16222360  0.71382407  0.15038655    -0.00100
C1673       C  0.99543815  0.72025405  0.10419694     0.01300
C1674       C  0.98789332  0.69856578  0.11616309     0.04100
C1675       C  0.98356049  0.67729125  0.10340630    -0.11900
C1676       C  0.98704044  0.67606903  0.07866543     0.23400
C1677       C  0.99352244  0.69657724  0.06610663    -0.12500
C1678       C  0.99671372  0.71871053  0.07808608     0.04800
C1679       C  0.98383571  0.65278660  0.06601049     0.27300
C1680       C  0.00384088  0.63782710  0.06087359    -0.13200
C1681       C  0.00068474  0.61477759  0.05140651     0.05400
C1682       C  0.97743508  0.60601189  0.04792013    -0.09200
C1683       C  0.95741445  0.62133638  0.05223139     0.06200
C1684       C  0.96066922  0.64480184  0.06075508    -0.13500
Br1685     Br  0.99719857  0.69375918  0.03160735    -0.05600
Br1686     Br  0.98638993  0.69479315  0.15067186     0.00000
Br1687     Br  0.02845189  0.59574658  0.04212231     0.00500
Br1688     Br  0.93341921  0.66608231  0.06571181    -0.03900
Br1689     Br  0.99885144  0.74531728  0.05573229     0.00600
Br1690     Br  0.97423420  0.64843978  0.12004821    -0.03200
Br1691     Br  0.03568994  0.64874336  0.06709338    -0.04100
Br1692     Br  0.92544160  0.60984859  0.04812115    -0.00100
C1693       C  0.00426497  0.76762946  0.10486667     0.01300
C1694       C  0.98771901  0.78823326  0.10400441     0.04100
C1695       C  0.99131887  0.80717881  0.08788355    -0.11900
C1696       C  0.01388308  0.81070337  0.07821849     0.23400
C1697       C  0.03183689  0.79309593  0.08121581    -0.12500
C1698       C  0.02685939  0.77121074  0.09277164     0.04800
C1699       C  0.01909280  0.83436361  0.06742359     0.27300
C1700       C  0.01786618  0.83778830  0.04242473    -0.13200
C1701       C  0.01992223  0.86092940  0.03263713     0.05400
C1702       C  0.02272253  0.88084762  0.04794302    -0.09200
C1703       C  0.02465890  0.87718811  0.07296069     0.06200
C1704       C  0.02305047  0.85402679  0.08259487    -0.13500
Br1705     Br  0.06337280  0.79930679  0.06887738    -0.05600
Br1706     Br  0.96437687  0.79796234  0.12813401     0.00000
Br1707     Br  0.01711054  0.86528345  0.99837687     0.00500
Br1708     Br  0.02554610  0.84924402  0.11682071    -0.03900
Br1709     Br  0.05153025  0.74662737  0.08922991     0.00600
Br1710     Br  0.96577493  0.83029669  0.08059483    -0.03200
Br1711     Br  0.01205574  0.81084027  0.02183271    -0.04100
Br1712     Br  0.02983815  0.90380051  0.09429308    -0.00100
C1713       C  0.24033436  0.70001997  0.63806919     0.01300
C1714       C  0.24058266  0.67496220  0.63472708     0.04100
C1715       C  0.24365275  0.66531924  0.61166396    -0.11900
C1716       C  0.24552478  0.68056309  0.59161671     0.23400
C1717       C  0.24514688  0.70553971  0.59481146    -0.12500
C1718       C  0.24311036  0.71526385  0.61802296     0.04800
C1719       C  0.24623010  0.67000569  0.56718228     0.27300
C1720       C  0.26781807  0.66667666  0.55505231    -0.13200
C1721       C  0.26844601  0.65482160  0.53271167     0.05400
C1722       C  0.24786660  0.64225366  0.52356016    -0.09200
C1723       C  0.22644589  0.64468436  0.53825778     0.06200
C1724       C  0.22532597  0.66107493  0.55741277    -0.13500
Br1725     Br  0.24697129  0.72632830  0.56724399    -0.05600
Br1726     Br  0.23535705  0.65356882  0.66138845     0.00000
Br1727     Br  0.29779788  0.65882078  0.51508589     0.00500
Br1728     Br  0.19508491  0.67006436  0.57237015    -0.03900
Br1729     Br  0.24558721  0.74939655  0.62222494     0.00600
Br1730     Br  0.24500990  0.63103551  0.60745812    -0.03200
Br1731     Br  0.29662978  0.67894238  0.56935188    -0.04100
Br1732     Br  0.20005938  0.62301867  0.54026741    -0.00100
C1733       C  0.27497767  0.60990490  0.50612243     0.01300
C1734       C  0.29570698  0.60745843  0.49041870     0.04100
C1735       C  0.31551262  0.59262714  0.49688801    -0.11900
C1736       C  0.31929510  0.58596651  0.52075832     0.23400
C1737       C  0.30118318  0.59037788  0.53743877    -0.12500
C1738       C  0.27859205  0.59958621  0.52984974     0.04800
C1739       C  0.34290462  0.57497065  0.52782986     0.27300
C1740       C  0.34573064  0.54993532  0.52952426    -0.13200
C1741       C  0.36883476  0.53914108  0.53005260     0.05400
C1742       C  0.38940767  0.55347555  0.52918645    -0.09200
C1743       C  0.38633135  0.57871363  0.52997379     0.06200
C1744       C  0.36320040  0.58934297  0.52917450    -0.13500
Br1745     Br  0.30764639  0.58369609  0.57091609    -0.05600
Br1746     Br  0.30404905  0.62756846  0.46351325     0.00000
Br1747     Br  0.37164307  0.50463162  0.52997551     0.00500
Br1748     Br  0.35913573  0.62375765  0.52895935    -0.03900
Br1749     Br  0.25317440  0.59508844  0.55261697     0.00600
Br1750     Br  0.33917948  0.58263173  0.47325493    -0.03200
Br1751     Br  0.31772136  0.53046180  0.52977864    -0.04100
Br1752     Br  0.41361722  0.59907938  0.53268395    -0.00100
C1753       C  0.11335572  0.55330733  0.48594822     0.01300
C1754       C  0.12760287  0.55552150  0.46517734     0.04100
C1755       C  0.15125193  0.56353413  0.46704208    -0.11900
C1756       C  0.16056998  0.57042344  0.48945848     0.23400
C1757       C  0.14669770  0.56741574  0.51027742    -0.12500
C1758       C  0.12335040  0.55861959  0.50858704     0.04800
C1759       C  0.18381453  0.58308276  0.49074394     0.27300
C1760       C  0.20498063  0.57112012  0.49784107    -0.13200
C1761       C  0.22698495  0.58324882  0.49912904     0.05400
C1762       C  0.22767782  0.60918343  0.49624259    -0.09200
C1763       C  0.20551420  0.62033942  0.48744126     0.06200
C1764       C  0.18442091  0.60724254  0.48440434    -0.13500
Br1765     Br  0.15960010  0.57534333  0.54126448    -0.05600
Br1766     Br  0.11441138  0.54931009  0.43380884     0.00000
Br1767     Br  0.25452487  0.56123606  0.50045080     0.00500
Br1768     Br  0.15495623  0.62282292  0.47310804    -0.03900
Br1769     Br  0.10561733  0.55280428  0.53759852     0.00600
Br1770     Br  0.17094923  0.56561196  0.43880347    -0.03200
Br1771     Br  0.20335240  0.53721530  0.50491816    -0.04100
Br1772     Br  0.20056664  0.65436602  0.48272629    -0.00100
C1773       C  0.26567705  0.69437819  0.36019713     0.01300
C1774       C  0.28639613  0.68687547  0.37293062     0.04100
C1775       C  0.28442205  0.67800893  0.39645150    -0.11900
C1776       C  0.26178602  0.67684363  0.40736163     0.23400
C1777       C  0.24128061  0.68560870  0.39513199    -0.12500
C1778       C  0.24317895  0.69422694  0.37154418     0.04800
C1779       C  0.25905972  0.66457539  0.43080060     0.27300
C1780       C  0.25398317  0.64028207  0.43119333    -0.13200
C1781       C  0.25202414  0.62795480  0.45316331     0.05400
C1782       C  0.25305928  0.64033520  0.47601993    -0.09200
C1783       C  0.25463519  0.66632580  0.47432288     0.06200
C1784       C  0.25990623  0.67741867  0.45220355    -0.13500
Br1785     Br  0.21056354  0.68550844  0.41079525    -0.05600
Br1786     Br  0.31738256  0.68773472  0.35783138     0.00000
Br1787     Br  0.25201335  0.59354962  0.44968782     0.00500
Br1788     Br  0.26740403  0.71107093  0.45046528    -0.03900
Br1789     Br  0.21499623  0.70659834  0.35514527     0.00600
Br1790     Br  0.31266824  0.66718440  0.41358731    -0.03200
Br1791     Br  0.25124073  0.62367103  0.40077996    -0.04100
Br1792     Br  0.24485813  0.68975647  0.49847053    -0.00100
C1793       C  0.60451379  0.50028201  0.22430221     0.01300
C1794       C  0.59183821  0.47869355  0.21829297     0.04100
C1795       C  0.58072994  0.47572865  0.19564827    -0.11900
C1796       C  0.57922647  0.49464923  0.17931629     0.23400
C1797       C  0.58950133  0.51633973  0.18501692    -0.12500
C1798       C  0.60468361  0.51811275  0.20512725     0.04800
C1799       C  0.56919569  0.49137778  0.15481517     0.27300
C1800       C  0.58481170  0.48598421  0.13564068    -0.13200
C1801       C  0.57632891  0.48681018  0.11186350     0.05400
C1802       C  0.55211988  0.49255529  0.10717958    -0.09200
C1803       C  0.53620374  0.49668229  0.12637113     0.06200
C1804       C  0.54477448  0.49627738  0.15017198    -0.13500
Br1805     Br  0.58435365  0.54319294  0.16320215    -0.05600
Br1806     Br  0.58692760  0.45264937  0.24032712     0.00000
Br1807     Br  0.59785901  0.48035257  0.08558413     0.00500
Br1808     Br  0.52345533  0.50348253  0.17641133    -0.03900
Br1809     Br  0.62932578  0.54104764  0.19854838     0.00600
Br1810     Br  0.56676311  0.44570346  0.18657834    -0.03200
Br1811     Br  0.61802893  0.47814832  0.14197293    -0.04100
Br1812     Br  0.50289955  0.50400471  0.11993482    -0.00100
C1813       C  0.54456817  0.51550748  0.38715273     0.01300
C1814       C  0.54741751  0.53619956  0.37294380     0.04100
C1815       C  0.55705779  0.53417373  0.34968663    -0.11900
C1816       C  0.56380089  0.51153268  0.34044622     0.23400
C1817       C  0.56004822  0.49082711  0.35425398    -0.12500
C1818       C  0.55057326  0.49277152  0.37751188     0.04800
C1819       C  0.57687012  0.50977344  0.31721263     0.27300
C1820       C  0.56469714  0.50570804  0.29571460    -0.13200
C1821       C  0.57698135  0.50486124  0.27346460     0.05400
C1822       C  0.60305129  0.50545600  0.27264044    -0.09200
C1823       C  0.61462885  0.51034823  0.29548922     0.06200
C1824       C  0.60154396  0.51273181  0.31699179    -0.13500
Br1825     Br  0.56816471  0.45967820  0.34152092    -0.05600
Br1826     Br  0.53975155  0.56752208  0.38574772     0.00000
Br1827     Br  0.55517236  0.50683030  0.24621927     0.00500
Br1828     Br  0.61756513  0.51825939  0.34742805    -0.03900
Br1829     Br  0.54537844  0.46395415  0.39584810     0.00600
Br1830     Br  0.56195800  0.56246216  0.33061226    -0.03200
Br1831     Br  0.53039882  0.50163261  0.29746636    -0.04100
Br1832     Br  0.64887982  0.51044160  0.30036714    -0.00100
C1833       C  0.63461739  0.47719124  0.25080843     0.01300
C1834       C  0.63503884  0.46128588  0.27157373     0.04100
C1835       C  0.65170105  0.44205910  0.27327042    -0.11900
C1836       C  0.66248723  0.43285072  0.25270340     0.23400
C1837       C  0.65957384  0.44509335  0.23098065    -0.12500
C1838       C  0.64748679  0.46768795  0.23017601     0.04800
C1839       C  0.67459536  0.40882642  0.25382810     0.27300
C1840       C  0.69933609  0.40660937  0.25830304    -0.13200
C1841       C  0.71032955  0.38378026  0.26135755     0.05400
C1842       C  0.69643909  0.36293011  0.26043395    -0.09200
C1843       C  0.67144627  0.36540409  0.25637302     0.06200
C1844       C  0.66075427  0.38818036  0.25258488    -0.13500
Br1845     Br  0.67293863  0.43060438  0.20235470    -0.05600
Br1846     Br  0.60978638  0.45708306  0.29484857     0.00000
Br1847     Br  0.74455470  0.38151120  0.26592893     0.00500
Br1848     Br  0.62686309  0.39130410  0.24596307    -0.03900
Br1849     Br  0.65195612  0.48502189  0.20064686     0.00600
Br1850     Br  0.65812027  0.42620605  0.30373287    -0.03200
Br1851     Br  0.71796136  0.43510419  0.26048985    -0.04100
Br1852     Br  0.65109798  0.33798742  0.25781226    -0.00100
C1853       C  0.75982044  0.30399604  0.36171038     0.01300
C1854       C  0.75991951  0.28889147  0.38224636     0.04100
C1855       C  0.75773774  0.29878230  0.40546153    -0.11900
C1856       C  0.75462358  0.32366032  0.40844734     0.23400
C1857       C  0.75351900  0.33865002  0.38811077    -0.12500
C1858       C  0.75653982  0.32904126  0.36493831     0.04800
C1859       C  0.75481832  0.33460930  0.43287041     0.27300
C1860       C  0.73382515  0.33764609  0.44610132    -0.13200
C1861       C  0.73406545  0.34950757  0.46853325     0.05400
C1862       C  0.75496009  0.36200930  0.47702747    -0.09200
C1863       C  0.77550243  0.36030610  0.46097154     0.06200
C1864       C  0.77593125  0.34415947  0.44152749    -0.13500
Br1865     Br  0.74844612  0.37271051  0.39223064    -0.05600
Br1866     Br  0.76208618  0.25449176  0.37907032     0.00000
Br1867     Br  0.70547437  0.34544569  0.48727661     0.00500
Br1868     Br  0.80547156  0.33624764  0.42475326    -0.03900
Br1869     Br  0.75796626  0.35094243  0.33810851     0.00600
Br1870     Br  0.75963512  0.27844069  0.43345301    -0.03200
Br1871     Br  0.70467418  0.32475967  0.43319825    -0.04100
Br1872     Br  0.80111323  0.38283509  0.45755743    -0.00100
C1873       C  0.72878260  0.39386356  0.49720242     0.01300
C1874       C  0.72397025  0.40572222  0.47437600     0.04100
C1875       C  0.70150326  0.41682919  0.46909667    -0.11900
C1876       C  0.68420914  0.41966126  0.48689837     0.23400
C1877       C  0.68898218  0.41082684  0.50986427    -0.12500
C1878       C  0.70904846  0.39553209  0.51422858     0.04800
C1879       C  0.65990511  0.42997442  0.48131638     0.27300
C1880       C  0.65532886  0.45483275  0.48249793    -0.13200
C1881       C  0.63168156  0.46411756  0.48041113     0.05400
C1882       C  0.61234691  0.44848280  0.47723532    -0.09200
C1883       C  0.61723642  0.42366624  0.47479647     0.06200
C1884       C  0.64087129  0.41450391  0.47688599    -0.13500
Br1885     Br  0.66630037  0.41874155  0.53511809    -0.05600
Br1886     Br  0.74776365  0.41004278  0.44987598     0.00000
Br1887     Br  0.62602175  0.49819927  0.48356903     0.00500
Br1888     Br  0.64726031  0.38051490  0.47425366    -0.03900
Br1889     Br  0.70240713  0.37388440  0.54045905     0.00600
Br1890     Br  0.69413578  0.42908074  0.43733843    -0.03200
Br1891     Br  0.68151931  0.47596290  0.48806757    -0.04100
Br1892     Br  0.59174181  0.40206143  0.46779060    -0.00100
C1893       C  0.77654040  0.39439413  0.50407515     0.01300
C1894       C  0.79927676  0.38287299  0.51065388     0.04100
C1895       C  0.82051037  0.39589131  0.51292870    -0.11900
C1896       C  0.82049847  0.42047538  0.50851954     0.23400
C1897       C  0.79892099  0.43270690  0.50354143    -0.12500
C1898       C  0.77697718  0.42049160  0.50245167     0.04800
C1899       C  0.84346849  0.43352816  0.50976491     0.27300
C1900       C  0.85310156  0.43990962  0.53219487    -0.13200
C1901       C  0.87581106  0.45022790  0.53360691     0.05400
C1902       C  0.88899604  0.45449754  0.51250420    -0.09200
C1903       C  0.87876305  0.44918042  0.48998702     0.06200
C1904       C  0.85620194  0.43858815  0.48865014    -0.13500
Br1905     Br  0.80003984  0.46715106  0.49926061    -0.05600
Br1906     Br  0.80446305  0.34862125  0.51306028     0.00000
Br1907     Br  0.88915170  0.45727311  0.56467908     0.00500
Br1908     Br  0.84277925  0.43095004  0.45779638    -0.03900
Br1909     Br  0.74944245  0.44258060  0.50321053     0.00600
Br1910     Br  0.85086842  0.37984041  0.52049275    -0.03200
Br1911     Br  0.83516618  0.43403047  0.56103052    -0.04100
Br1912     Br  0.89504924  0.45749203  0.46076363    -0.00100
C1913       C  0.35958853  0.52256719  0.74465500     0.01300
C1914       C  0.36013875  0.53805204  0.72355298     0.04100
C1915       C  0.34546363  0.55890444  0.72207060    -0.11900
C1916       C  0.33580500  0.56907759  0.74275349     0.23400
C1917       C  0.33678560  0.55628902  0.76422898    -0.12500
C1918       C  0.34629921  0.53264878  0.76477953     0.04800
C1919       C  0.32603627  0.59404199  0.74189723     0.27300
C1920       C  0.34172458  0.61329215  0.74323519    -0.13200
C1921       C  0.33304661  0.63694990  0.73996827     0.05400
C1922       C  0.30830472  0.64158928  0.73582563    -0.09200
C1923       C  0.29249391  0.62210117  0.73550074     0.06200
C1924       C  0.30146012  0.59846194  0.73817295    -0.13500
Br1925     Br  0.32462868  0.57159273  0.79297638    -0.05600
Br1926     Br  0.38410563  0.53861575  0.69856616     0.00000
Br1927     Br  0.35576486  0.66247194  0.74005487     0.00500
Br1928     Br  0.28023139  0.57181219  0.73641919    -0.03900
Br1929     Br  0.33813172  0.51494496  0.79327707     0.00600
Br1930     Br  0.33996785  0.57540320  0.69175475    -0.03200
Br1931     Br  0.37534387  0.60702032  0.74928720    -0.04100
Br1932     Br  0.25826207  0.62723013  0.73281037    -0.00100
C1933       C  0.35819661  0.47458596  0.74876064     0.01300
C1934       C  0.36959932  0.45088771  0.74834661     0.04100
C1935       C  0.35621227  0.42981392  0.74888410    -0.11900
C1936       C  0.33138825  0.43099885  0.75119561     0.23400
C1937       C  0.31940208  0.45324870  0.75083684    -0.12500
C1938       C  0.33206798  0.47477136  0.74811678     0.04800
C1939       C  0.31794685  0.40841265  0.75371588     0.27300
C1940       C  0.31226805  0.39494121  0.73322531    -0.13200
C1941       C  0.30202044  0.37230662  0.73571836     0.05400
C1942       C  0.29742735  0.36295703  0.75878058    -0.09200
C1943       C  0.30209888  0.37696343  0.77921931     0.06200
C1944       C  0.31229776  0.39959507  0.77666797    -0.13500
Br1945     Br  0.28478785  0.45347068  0.75323457    -0.05600
Br1946     Br  0.40365532  0.44488290  0.75157184     0.00000
Br1947     Br  0.29364982  0.35448859  0.70739637     0.00500
Br1948     Br  0.31907364  0.41824427  0.80477196    -0.03900
Br1949     Br  0.31092230  0.50168052  0.73938267     0.00600
Br1950     Br  0.37192630  0.39839183  0.74820242    -0.03200
Br1951     Br  0.31908478  0.40745130  0.70176369    -0.04100
Br1952     Br  0.29602684  0.36466055  0.81093940    -0.00100
C1953       C  0.38824202  0.50158879  0.77332601     0.01300
C1954       C  0.40003121  0.52403451  0.77798114     0.04100
C1955       C  0.40804335  0.53016717  0.80119706    -0.11900
C1956       C  0.40880125  0.51306675  0.81942507     0.23400
C1957       C  0.40063259  0.49017092  0.81492546    -0.12500
C1958       C  0.38748171  0.48548490  0.79392547     0.04800
C1959       C  0.41711994  0.51885939  0.84402949     0.27300
C1960       C  0.44118816  0.51442230  0.85045024    -0.13200
C1961       C  0.44793820  0.51401927  0.87478344     0.05400
C1962       C  0.43060930  0.51804233  0.89275107    -0.09200
C1963       C  0.40693624  0.52436189  0.88624773     0.06200
C1964       C  0.40020022  0.52484459  0.86188649    -0.13500
Br1965     Br  0.40608381  0.46557610  0.83921966    -0.05600
Br1966     Br  0.40800689  0.54684130  0.75337016     0.00000
Br1967     Br  0.48069294  0.50657553  0.88348927     0.00500
Br1968     Br  0.36762970  0.53281959  0.85289595    -0.03900
Br1969     Br  0.36468582  0.46073205  0.80031789     0.00600
Br1970     Br  0.41859792  0.56206639  0.80840015    -0.03200
Br1971     Br  0.46447347  0.50746837  0.82584540    -0.04100
Br1972     Br  0.38384272  0.53219272  0.91076865    -0.00100
C1973       C  0.39240095  0.49266930  0.72597409     0.01300
C1974       C  0.41853166  0.49245207  0.72700902     0.04100
C1975       C  0.43238615  0.48931256  0.70588796    -0.11900
C1976       C  0.42156761  0.48473859  0.68378589     0.23400
C1977       C  0.39684286  0.48220784  0.68249141    -0.12500
C1978       C  0.38237088  0.48595473  0.70290195     0.04800
C1979       C  0.43594610  0.48302170  0.66133416     0.27300
C1980       C  0.44239938  0.50405040  0.64921830    -0.13200
C1981       C  0.45231474  0.50268963  0.62611699     0.05400
C1982       C  0.45557099  0.48030150  0.61477532    -0.09200
C1983       C  0.45025798  0.45914707  0.62735606     0.06200
C1984       C  0.44084473  0.46052434  0.65074505    -0.13500
Br1985     Br  0.38265675  0.47563773  0.65133741    -0.05600
Br1986     Br  0.43830712  0.49225502  0.75587000     0.00000
Br1987     Br  0.46187066  0.53165260  0.61020971     0.00500
Br1988     Br  0.43382027  0.43168384  0.66814462    -0.03900
Br1989     Br  0.34851302  0.48560669  0.69580813     0.00600
Br1990     Br  0.46706094  0.49033206  0.70662395    -0.03200
Br1991     Br  0.43729080  0.53489241  0.66399684    -0.04100
Br1992     Br  0.45393686  0.42837913  0.61195730    -0.00100
C1993       C  0.74557140  0.19718033  0.13654779     0.01300
C1994       C  0.74361542  0.17201929  0.13483625     0.04100
C1995       C  0.74595663  0.16055192  0.11248106    -0.11900
C1996       C  0.74899815  0.17409725  0.09140704     0.23400
C1997       C  0.75103080  0.19911762  0.09298237    -0.12500
C1998       C  0.74992934  0.21056730  0.11550453     0.04800
C1999       C  0.74878069  0.16189319  0.06762926     0.27300
C2000       C  0.76999710  0.15665495  0.05534881    -0.13200
C2001       C  0.76945831  0.14496550  0.03282975     0.05400
C2002       C  0.74785442  0.13413378  0.02378151    -0.09200
C2003       C  0.72750482  0.13659416  0.03986488     0.06200
C2004       C  0.72732438  0.15344861  0.05858739    -0.13500
Br2005     Br  0.75493611  0.21767718  0.06411882    -0.05600
Br2006     Br  0.73613998  0.15297939  0.16267952     0.00000
Br2007     Br  0.79878298  0.14715595  0.01506835     0.00500
Br2008     Br  0.69759814  0.16329111  0.07391951    -0.03900
Br2009     Br  0.75584965  0.24437832  0.11742049     0.00600
Br2010     Br  0.74486185  0.12607008  0.11060443    -0.03200
Br2011     Br  0.79993351  0.16583772  0.06981679    -0.04100
Br2012     Br  0.70258760  0.11366691  0.04484619    -0.00100
C2013       C  0.60545546  0.05630334  0.98677042     0.01300
C2014       C  0.61567245  0.06242526  0.00906020     0.04100
C2015       C  0.63931004  0.07033677  0.01019971    -0.11900
C2016       C  0.65307208  0.07215133  0.98918684     0.23400
C2017       C  0.64310979  0.06567103  0.96694441    -0.12500
C2018       C  0.61935016  0.05788435  0.96567411     0.04800
C2019       C  0.67732417  0.08261840  0.99037678     0.27300
C2020       C  0.67961190  0.10710047  0.98677956    -0.13200
C2021       C  0.70164064  0.11811025  0.99090553     0.05400
C2022       C  0.72342311  0.10436067  0.99667020    -0.09200
C2023       C  0.72059546  0.07847531  0.99771040     0.06200
C2024       C  0.69757621  0.06838859  0.99578566    -0.13500
Br2025     Br  0.66213463  0.06770319  0.93824344    -0.05600
Br2026     Br  0.59799790  0.05869498  0.03851141     0.00000
Br2027     Br  0.69877748  0.15267532  0.99190336     0.00500
Br2028     Br  0.69302759  0.03429389  0.99969335    -0.03900
Br2029     Br  0.60570776  0.05041898  0.93476711     0.00600
Br2030     Br  0.65288396  0.07838077  0.04081466    -0.03200
Br2031     Br  0.65136688  0.12575954  0.97709389    -0.04100
Br2032     Br  0.74600373  0.05410056  0.99838278    -0.00100
C2033       C  0.77189420  0.10161947  0.00145252     0.01300
C2034       C  0.77743408  0.08830032  0.02326434     0.04100
C2035       C  0.79891532  0.07448910  0.02581328    -0.11900
C2036       C  0.81489216  0.07207036  0.00675802     0.23400
C2037       C  0.80980298  0.08356009  0.98511078    -0.12500
C2038       C  0.79074277  0.10046236  0.98343195     0.04800
C2039       C  0.83903437  0.06078256  0.01039549     0.27300
C2040       C  0.85815695  0.07524173  0.01729782    -0.13200
C2041       C  0.88153976  0.06552046  0.01880204     0.05400
C2042       C  0.88605040  0.04118973  0.01332024    -0.09200
C2043       C  0.86678739  0.02654402  0.00685474     0.06200
C2044       C  0.84334122  0.03638723  0.00533237    -0.13500
Br2045     Br  0.83117064  0.07758434  0.95824167    -0.05600
Br2046     Br  0.75615096  0.08639763  0.05033135     0.00000
Br2047     Br  0.90721204  0.08558200  0.02923329     0.00500
Br2048     Br  0.81712822  0.01685858  0.99548134    -0.03900
Br2049     Br  0.79831036  0.12496219  0.96014981     0.00600
Br2050     Br  0.80679639  0.05784187  0.05541427    -0.03200
Br2051     Br  0.85235085  0.10868377  0.02424022    -0.04100
Br2052     Br  0.87250770  0.99335316  0.99865671    -0.00100
C2053       C  0.14076683  0.97839244  0.75151025     0.01300
C2054       C  0.14151415  0.96279382  0.77240028     0.04100
C2055       C  0.15818420  0.94365274  0.77392340    -0.11900
C2056       C  0.16770259  0.93364117  0.75308409     0.23400
C2057       C  0.16405727  0.94549704  0.73119666    -0.12500
C2058       C  0.15264316  0.96843048  0.73053663     0.04800
C2059       C  0.17904137  0.90928496  0.75433057     0.27300
C2060       C  0.20410621  0.90620381  0.75462536    -0.13200
C2061       C  0.21460780  0.88322865  0.75804555     0.05400
C2062       C  0.20002949  0.86327879  0.76207996    -0.09200
C2063       C  0.17485674  0.86654474  0.76189777     0.06200
C2064       C  0.16447279  0.88932018  0.75746396    -0.13500
Br2065     Br  0.17548302  0.93019870  0.70219291    -0.05600
Br2066     Br  0.11626779  0.95846191  0.79564015     0.00000
Br2067     Br  0.24893817  0.87923927  0.75592113     0.00500
Br2068     Br  0.13006922  0.89334501  0.75591721    -0.03900
Br2069     Br  0.15676725  0.98568581  0.70089022     0.00600
Br2070     Br  0.16613206  0.92913531  0.80465630    -0.03200
Br2071     Br  0.22396813  0.93363180  0.75067327    -0.04100
Br2072     Br  0.15426259  0.84028333  0.76925568    -0.00100
C2073       C  0.20929491  0.13521209  0.73889412     0.01300
C2074       C  0.20703624  0.12467712  0.76180159     0.04100
C2075       C  0.19573264  0.10257776  0.76430740    -0.11900
C2076       C  0.18656712  0.09094834  0.74395903     0.23400
C2077       C  0.18968948  0.10109327  0.72101613    -0.12500
C2078       C  0.20082669  0.12322203  0.71850773     0.04800
C2079       C  0.17237872  0.06888075  0.74684916     0.27300
C2080       C  0.18334287  0.04623514  0.74499999    -0.13200
C2081       C  0.17004938  0.02514186  0.74798123     0.05400
C2082       C  0.14399679  0.02633937  0.74997422    -0.09200
C2083       C  0.13376511  0.05037675  0.75277325     0.06200
C2084       C  0.14799496  0.07089730  0.75187589    -0.13500
Br2085     Br  0.17833053  0.08509440  0.69286993    -0.05600
Br2086     Br  0.21951611  0.14044914  0.78978382     0.00000
Br2087     Br  0.19083005  0.99719722  0.75329038     0.00500
Br2088     Br  0.13397843  0.10278263  0.75606152    -0.03900
Br2089     Br  0.20263726  0.13806564  0.68726062     0.00600
Br2090     Br  0.19226513  0.08835179  0.79563017    -0.03200
Br2091     Br  0.21755055  0.04483762  0.73912010    -0.04100
Br2092     Br  0.09986346  0.05784289  0.75419108    -0.00100
C2093       C  0.11090532  0.00286292  0.72606468     0.01300
C2094       C  0.09788124  0.98162276  0.71960498     0.04100
C2095       C  0.08668792  0.97946362  0.69686936    -0.11900
C2096       C  0.08378707  0.99942280  0.68187572     0.23400
C2097       C  0.09325904  0.02108176  0.68903417    -0.12500
C2098       C  0.11003979  0.02152604  0.70786616     0.04800
C2099       C  0.07367230  0.99735174  0.65717146     0.27300
C2100       C  0.08933731  0.99645044  0.63737607    -0.13200
C2101       C  0.08019177  0.99696560  0.61383146     0.05400
C2102       C  0.05530778  0.99801433  0.60981303    -0.09200
C2103       C  0.03956936  0.99816747  0.62953962     0.06200
C2104       C  0.04874144  0.99803687  0.65318669    -0.13500
Br2105     Br  0.08544967  0.04974674  0.67067007    -0.05600
Br2106     Br  0.09252059  0.95524125  0.74107934     0.00000
Br2107     Br  0.10181453  0.99597869  0.58692406     0.00500
Br2108     Br  0.02731955  0.99974906  0.68016220    -0.03900
Br2109     Br  0.13539315  0.04280228  0.69953222     0.00600
Br2110     Br  0.07506291  0.94907744  0.68588122    -0.03200
Br2111     Br  0.12349174  0.99488188  0.64249285    -0.04100
Br2112     Br  0.00549454  0.99975444  0.62411875    -0.00100
C2113       C  0.05452179  0.01504458  0.88980555     0.01300
C2114       C  0.06053653  0.03636877  0.87792723     0.04100
C2115       C  0.06982882  0.03545558  0.85448882    -0.11900
C2116       C  0.07317341  0.01324880  0.84282272     0.23400
C2117       C  0.06626297  0.99205869  0.85437079    -0.12500
C2118       C  0.05703398  0.99294404  0.87778354     0.04800
C2119       C  0.08575379  0.01204513  0.81930496     0.27300
C2120       C  0.07297540  0.00995025  0.79784169    -0.13200
C2121       C  0.08491735  0.00851237  0.77543421     0.05400
C2122       C  0.11100162  0.00768101  0.77424224    -0.09200
C2123       C  0.12319409  0.01153458  0.79696599     0.06200
C2124       C  0.11061311  0.01337199  0.81881433    -0.13500
Br2125     Br  0.06931719  0.96171359  0.83818736    -0.05600
Br2126     Br  0.05713906  0.06674538  0.89411674     0.00000
Br2127     Br  0.06289386  0.01168212  0.74845780     0.00500
Br2128     Br  0.12751196  0.01576217  0.84925271    -0.03900
Br2129     Br  0.04691755  0.96382880  0.89299223     0.00600
Br2130     Br  0.07846854  0.06455190  0.83835868    -0.03200
Br2131     Br  0.03832510  0.00971394  0.79988059    -0.04100
Br2132     Br  0.15754037  0.01122551  0.80107339    -0.00100
C2133       C  0.35971431  0.75984405  0.30205591     0.01300
C2134       C  0.37145382  0.73732511  0.30492527     0.04100
C2135       C  0.39440392  0.73574253  0.31537724    -0.11900
C2136       C  0.40572078  0.75660039  0.32313704     0.23400
C2137       C  0.39406878  0.77911316  0.32010197    -0.12500
C2138       C  0.37117116  0.78074907  0.30952631     0.04800
C2139       C  0.42919323  0.75455183  0.33586063     0.27300
C2140       C  0.42966023  0.75039608  0.36049292    -0.13200
C2141       C  0.45155334  0.74929009  0.37318512     0.05400
C2142       C  0.47453561  0.75088703  0.36111928    -0.09200
C2143       C  0.47309330  0.75259265  0.33500691     0.06200
C2144       C  0.45065307  0.75582237  0.32322906    -0.13500
Br2145     Br  0.40913026  0.80772247  0.33098782    -0.05600
Br2146     Br  0.35645255  0.70858664  0.29396412     0.00000
Br2147     Br  0.44741906  0.74993363  0.40760244     0.00500
Br2148     Br  0.44847953  0.76144311  0.28891858    -0.03900
Br2149     Br  0.35492903  0.81156395  0.30660064     0.00600
Br2150     Br  0.41034671  0.70494943  0.31955714    -0.03200
Br2151     Br  0.39927003  0.74784165  0.37698803    -0.04100
Br2152     Br  0.49906687  0.74720320  0.31236978    -0.00100
C2153       C  0.49496301  0.72528833  0.39245877     0.01300
C2154       C  0.48881612  0.70344368  0.37988765     0.04100
C2155       C  0.48405520  0.68191336  0.39209961    -0.11900
C2156       C  0.48646796  0.68031559  0.41694042     0.23400
C2157       C  0.49229546  0.70070498  0.43004244    -0.12500
C2158       C  0.49552978  0.72316535  0.41856460     0.04800
C2159       C  0.48382159  0.65662702  0.42914283     0.27300
C2160       C  0.46094922  0.64793218  0.43446199    -0.13200
C2161       C  0.45858919  0.62494046  0.44467801     0.05400
C2162       C  0.47914393  0.61055971  0.44982572    -0.09200
C2163       C  0.50200863  0.61958506  0.44501331     0.06200
C2164       C  0.50429332  0.64231522  0.43449351    -0.13500
Br2165     Br  0.49511096  0.69718883  0.46458837    -0.05600
Br2166     Br  0.49057269  0.69959753  0.34554494     0.00000
Br2167     Br  0.42715742  0.61274251  0.45037755     0.00500
Br2168     Br  0.53566332  0.65365915  0.42707833    -0.03900
Br2169     Br  0.49702406  0.74929949  0.44138583     0.00600
Br2170     Br  0.47557735  0.65324241  0.37467043    -0.03200
Br2171     Br  0.43287753  0.66743234  0.42714177    -0.04100
Br2172     Br  0.53055706  0.60132545  0.45381205    -0.00100
C2173       C  0.50117126  0.77353481  0.39280598     0.01300
C2174       C  0.48345725  0.79322491  0.39363555     0.04100
C2175       C  0.48596089  0.81246279  0.40969609    -0.11900
C2176       C  0.50818465  0.81729319  0.41965173     0.23400
C2177       C  0.52698788  0.80058720  0.41709480    -0.12500
C2178       C  0.52334281  0.77843551  0.40543163     0.04800
C2179       C  0.51205068  0.84136287  0.43033752     0.27300
C2180       C  0.51825871  0.86055354  0.41529821    -0.13200
C2181       C  0.51857057  0.88404844  0.42435772     0.05400
C2182       C  0.51240795  0.88857875  0.44841197    -0.09200
C2183       C  0.50711570  0.86933022  0.46371236     0.06200
C2184       C  0.50704789  0.84574219  0.45472264    -0.13500
Br2185     Br  0.55779694  0.80835722  0.43053780    -0.05600
Br2186     Br  0.45927857  0.80169358  0.36972792     0.00000
Br2187     Br  0.52713648  0.91018576  0.40376113     0.00500
Br2188     Br  0.49901098  0.81948230  0.47536966    -0.03900
Br2189     Br  0.54921277  0.75530091  0.40997984     0.00600
Br2190     Br  0.45922989  0.83425393  0.41660694    -0.03200
Br2191     Br  0.52532310  0.85472470  0.38194883    -0.04100
Br2192     Br  0.49888886  0.87552728  0.49669217    -0.00100
C2193       C  0.76443358  0.60384618  0.99624908     0.01300
C2194       C  0.77287891  0.58722686  0.01440258     0.04100
C2195       C  0.79598904  0.57613628  0.01289029    -0.11900
C2196       C  0.81039475  0.57966939  0.99264836     0.23400
C2197       C  0.80072364  0.59225719  0.97303995    -0.12500
C2198       C  0.77742057  0.60233531  0.97409131     0.04800
C2199       C  0.83477774  0.56822267  0.99064571     0.27300
C2200       C  0.85530453  0.58233502  0.99150011    -0.13200
C2201       C  0.87811693  0.57204351  0.98723145     0.05400
C2202       C  0.88097509  0.54708105  0.98325981    -0.09200
C2203       C  0.86026617  0.53293639  0.98222825     0.06200
C2204       C  0.83733149  0.54360756  0.98543345    -0.13500
Br2205     Br  0.81896524  0.59392089  0.94361641    -0.05600
Br2206     Br  0.75414996  0.57857468  0.04166508     0.00000
Br2207     Br  0.90499073  0.59309796  0.98489044     0.00500
Br2208     Br  0.80912169  0.52465105  0.98183279    -0.03900
Br2209     Br  0.76157930  0.60262104  0.94352926     0.00600
Br2210     Br  0.80921303  0.55807761  0.03967282    -0.03200
Br2211     Br  0.85237018  0.61618645  0.99769325    -0.04100
Br2212     Br  0.86265514  0.49876892  0.97713606    -0.00100
C2213       C  0.59847385  0.56318813  0.00575036     0.01300
C2214       C  0.60241116  0.58691034  0.99831025     0.04100
C2215       C  0.62578660  0.59550313  0.99715181    -0.11900
C2216       C  0.64551360  0.58069386  0.00407102     0.23400
C2217       C  0.64142894  0.55734404  0.01265913    -0.12500
C2218       C  0.61810221  0.54840900  0.01291791     0.04800
C2219       C  0.67038012  0.58989829  0.00390069     0.27300
C2220       C  0.68764606  0.58048372  0.98804241    -0.13200
C2221       C  0.71186133  0.58734324  0.98963413     0.05400
C2222       C  0.71890089  0.60664099  0.00514714    -0.09200
C2223       C  0.70188791  0.61167212  0.02401630     0.06200
C2224       C  0.67770743  0.60525612  0.02209342    -0.13500
Br2225     Br  0.66774960  0.53779159  0.02496446    -0.05600
Br2226     Br  0.57564712  0.60835876  0.99089594     0.00000
Br2227     Br  0.73396633  0.56383603  0.97653674     0.00500
Br2228     Br  0.65458269  0.61598011  0.04593518    -0.03900
Br2229     Br  0.61343641  0.51545621  0.02186884     0.00600
Br2230     Br  0.63017963  0.62797527  0.98680995    -0.03200
Br2231     Br  0.67760140  0.55893634  0.96303563    -0.04100
Br2232     Br  0.71081207  0.61543800  0.05694419    -0.00100
C2233       C  0.74775996  0.63915792  0.02319108     0.01300
C2234       C  0.73134673  0.65795483  0.03075087     0.04100
C2235       C  0.73221370  0.66728095  0.05448375    -0.11900
C2236       C  0.74979133  0.65897309  0.07087571     0.23400
C2237       C  0.76831723  0.64400655  0.06250458    -0.12500
C2238       C  0.76863955  0.63635460  0.03843383     0.04800
C2239       C  0.75063057  0.66799578  0.09614095     0.27300
C2240       C  0.75920443  0.69106545  0.10081882    -0.13200
C2241       C  0.76083105  0.69951112  0.12457328     0.05400
C2242       C  0.75443626  0.68469189  0.14398412    -0.09200
C2243       C  0.74679561  0.66129000  0.13939197     0.06200
C2244       C  0.74492717  0.65298847  0.11567077    -0.13500
Br2245     Br  0.79449983  0.63530129  0.08400960    -0.05600
Br2246     Br  0.70705299  0.67167885  0.01007404     0.00000
Br2247     Br  0.77089173  0.73183839  0.13014822     0.00500
Br2248     Br  0.73581967  0.62043687  0.11064283    -0.03900
Br2249     Br  0.80079467  0.63144796  0.02666573     0.00600
Br2250     Br  0.70759268  0.68942559  0.06571592    -0.03200
Br2251     Br  0.76976252  0.71076374  0.07461197    -0.04100
Br2252     Br  0.74022490  0.63982211  0.16572497    -0.00100
C2253       C  0.80843776  0.85511792  0.24910972     0.01300
C2254       C  0.83286810  0.85964526  0.25217781     0.04100
C2255       C  0.84097410  0.88319094  0.25059934    -0.11900
C2256       C  0.82461812  0.90240185  0.24604582     0.23400
C2257       C  0.80014695  0.89779185  0.24284539    -0.12500
C2258       C  0.79213148  0.87413290  0.24404355     0.04800
C2259       C  0.83320583  0.92741278  0.24579720     0.27300
C2260       C  0.83959083  0.93817108  0.26729882    -0.13200
C2261       C  0.85460918  0.95802816  0.26715787     0.05400
C2262       C  0.85685657  0.97288350  0.24577820    -0.09200
C2263       C  0.84591994  0.96296033  0.22442515     0.06200
C2264       C  0.83680116  0.93959732  0.22428112    -0.13500
Br2265     Br  0.77762317  0.92396831  0.23734735    -0.05600
Br2266     Br  0.85514548  0.83346713  0.25888572     0.00000
Br2267     Br  0.87600174  0.95599519  0.29447684     0.00500
Br2268     Br  0.82939680  0.92374554  0.19442176    -0.03900
Br2269     Br  0.75901444  0.86757072  0.23773387     0.00600
Br2270     Br  0.87454533  0.88899376  0.25491596    -0.03200
Br2271     Br  0.82981176  0.92341622  0.29713151    -0.04100
Br2272     Br  0.84108323  0.98023501  0.19472247    -0.00100
C2273       C  0.64163524  0.74718268  0.31096147     0.01300
C2274       C  0.62293350  0.73940446  0.29585103     0.04100
C2275       C  0.59897760  0.74050025  0.30377682    -0.11900
C2276       C  0.59345172  0.74924937  0.32682046     0.23400
C2277       C  0.61194572  0.75742293  0.34172643    -0.12500
C2278       C  0.63589424  0.75633060  0.33394379     0.04800
C2279       C  0.56857492  0.74818129  0.33641849     0.27300
C2280       C  0.55357900  0.76850907  0.33653966    -0.13200
C2281       C  0.53133407  0.76853005  0.34862379     0.05400
C2282       C  0.52321205  0.74773861  0.36171480    -0.09200
C2283       C  0.54032996  0.72744584  0.36200200     0.06200
C2284       C  0.56133282  0.72742794  0.34788643    -0.13500
Br2285     Br  0.60435997  0.76983331  0.37315854    -0.05600
Br2286     Br  0.62968173  0.72810423  0.26381770     0.00000
Br2287     Br  0.51257761  0.79774128  0.34447381     0.00500
Br2288     Br  0.58216757  0.69909192  0.34531966    -0.03900
Br2289     Br  0.66080166  0.76614631  0.35566186     0.00600
Br2290     Br  0.57350653  0.72997237  0.28320796    -0.03200
Br2291     Br  0.56393203  0.79634290  0.31898625    -0.04100
Br2292     Br  0.54205848  0.70129354  0.38504907    -0.00100
C2293       C  0.69096739  0.64054240  0.24815676     0.01300
C2294       C  0.69148529  0.62633601  0.26927457     0.04100
C2295       C  0.68244676  0.60301181  0.26897899    -0.11900
C2296       C  0.67355750  0.59330945  0.24753878     0.23400
C2297       C  0.67426027  0.60686204  0.22622605    -0.12500
C2298       C  0.68228450  0.63054344  0.22659289     0.04800
C2299       C  0.66084420  0.57013763  0.24809799     0.27300
C2300       C  0.67329005  0.54824250  0.24585323    -0.13200
C2301       C  0.66134793  0.52618780  0.24792115     0.05400
C2302       C  0.63528936  0.52565302  0.24914839    -0.09200
C2303       C  0.62338259  0.54900466  0.25143989     0.06200
C2304       C  0.63619979  0.57043116  0.25176361    -0.13500
Br2305     Br  0.66369329  0.59314382  0.19648059    -0.05600
Br2306     Br  0.70507794  0.63817947  0.29872142     0.00000
Br2307     Br  0.68356934  0.49930612  0.25275475     0.00500
Br2308     Br  0.61987877  0.60128201  0.25590180    -0.03900
Br2309     Br  0.67902239  0.64969399  0.19778233     0.00600
Br2310     Br  0.68152512  0.58432954  0.29812155    -0.03200
Br2311     Br  0.70746726  0.54918841  0.24031145    -0.04100
Br2312     Br  0.58914547  0.55434180  0.25034566    -0.00100
C2313       C  0.85875381  0.75063090  0.18923329     0.01300
C2314       C  0.86812918  0.77193410  0.17958005     0.04100
C2315       C  0.89186730  0.77218429  0.17108337    -0.11900
C2316       C  0.90648302  0.75127679  0.17199977     0.23400
C2317       C  0.89757989  0.73033270  0.18233598    -0.12500
C2318       C  0.87393961  0.72996909  0.19102122     0.04800
C2319       C  0.93017578  0.75037610  0.15970281     0.27300
C2320       C  0.93104235  0.74553696  0.13521362    -0.13200
C2321       C  0.95296887  0.74548719  0.12285956     0.05400
C2322       C  0.97579802  0.74650896  0.13538294    -0.09200
C2323       C  0.97405815  0.74907344  0.16132813     0.06200
C2324       C  0.95151738  0.75321162  0.17245720    -0.13500
Br2325     Br  0.91784924  0.70184905  0.18385936    -0.05600
Br2326     Br  0.84836563  0.80067202  0.17635164     0.00000
Br2327     Br  0.94914452  0.74771033  0.08846860     0.00500
Br2328     Br  0.94921898  0.76260780  0.20580215    -0.03900
Br2329     Br  0.86307559  0.70112567  0.20615959     0.00600
Br2330     Br  0.90428864  0.80102117  0.15737936    -0.03200
Br2331     Br  0.90126120  0.73971123  0.11842522    -0.04100
Br2332     Br  0.99959717  0.74353910  0.18448647    -0.00100
C2333       C  0.77745019  0.89353141  0.49266826     0.01300
C2334       C  0.77941121  0.91952506  0.49214435     0.04100
C2335       C  0.80194442  0.93027217  0.48881986    -0.11900
C2336       C  0.82293983  0.91635487  0.48621852     0.23400
C2337       C  0.82164542  0.89148290  0.48516804    -0.12500
C2338       C  0.79952167  0.88014280  0.48761156     0.04800
C2339       C  0.84688246  0.92762120  0.48555123     0.27300
C2340       C  0.86023541  0.92775542  0.46413536    -0.13200
C2341       C  0.88445530  0.93421120  0.46450689     0.05400
C2342       C  0.89490451  0.94263280  0.48592654    -0.09200
C2343       C  0.88078198  0.94437781  0.50690451     0.06200
C2344       C  0.85723944  0.93613012  0.50689001    -0.13500
Br2345     Br  0.85136834  0.87273201  0.48272732    -0.05600
Br2346     Br  0.75302176  0.94290969  0.49247706     0.00000
Br2347     Br  0.90364754  0.92908631  0.43622811     0.00500
Br2348     Br  0.83945220  0.93604390  0.53646708    -0.03900
Br2349     Br  0.80249121  0.84562760  0.48784060     0.00600
Br2350     Br  0.80480843  0.96477702  0.48692744    -0.03200
Br2351     Br  0.84531089  0.91850315  0.43439909    -0.04100
Br2352     Br  0.89300214  0.95899457  0.53576114    -0.00100
C2353       C  0.72929005  0.89545529  0.49927738     0.01300
C2354       C  0.70970715  0.89670201  0.48184436     0.04100
C2355       C  0.68986117  0.91240028  0.48508868    -0.11900
C2356       C  0.68458430  0.92141050  0.50774065     0.23400
C2357       C  0.70169437  0.91934531  0.52593524    -0.12500
C2358       C  0.72430751  0.90827615  0.52145293     0.04800
C2359       C  0.65977041  0.93029661  0.51270797     0.27300
C2360       C  0.65292949  0.95427031  0.50788139    -0.13200
C2361       C  0.62860970  0.96144379  0.50878738     0.05400
C2362       C  0.61111510  0.94465165  0.51449136    -0.09200
C2363       C  0.61802398  0.92099001  0.52033362     0.06200
C2364       C  0.64229787  0.91384428  0.51955137    -0.13500
Br2365     Br  0.69374216  0.93252551  0.55705638    -0.05600
Br2366     Br  0.70213226  0.87364300  0.45724111     0.00000
Br2367     Br  0.61904385  0.99390976  0.50084501     0.00500
Br2368     Br  0.65147247  0.88123640  0.52710734    -0.03900
Br2369     Br  0.74767219  0.91347537  0.54628742     0.00600
Br2370     Br  0.66779906  0.91991158  0.45891491    -0.03200
Br2371     Br  0.67680847  0.97682423  0.49887186    -0.04100
Br2372     Br  0.59407362  0.89834100  0.52908260    -0.00100
C2373       C  0.75204037  0.86277380  0.47288339     0.01300
C2374       C  0.74901288  0.83692400  0.47199047     0.04100
C2375       C  0.74468927  0.82530267  0.44981331    -0.11900
C2376       C  0.74824571  0.83708068  0.42802436     0.23400
C2377       C  0.75499778  0.86089966  0.42809746    -0.12500
C2378       C  0.75502832  0.87410833  0.44958780     0.04800
C2379       C  0.74607193  0.82450142  0.40458450     0.27300
C2380       C  0.76626939  0.81264649  0.39478334    -0.13200
C2381       C  0.76602387  0.80501415  0.37072658     0.05400
C2382       C  0.74552598  0.80935203  0.35620424    -0.09200
C2383       C  0.72492863  0.82027814  0.36639970     0.06200
C2384       C  0.72512167  0.82745966  0.39058205    -0.13500
Br2385     Br  0.76299739  0.87576215  0.39772247    -0.05600
Br2386     Br  0.75452624  0.81418599  0.49801643     0.00000
Br2387     Br  0.79377591  0.78814470  0.35808419     0.00500
Br2388     Br  0.69667882  0.84169921  0.40433608    -0.03900
Br2389     Br  0.75446794  0.90825392  0.44411794     0.00600
Br2390     Br  0.73426525  0.79255100  0.44866269    -0.03200
Br2391     Br  0.79450228  0.80748980  0.41436462    -0.04100
Br2392     Br  0.69695876  0.82734204  0.34688826    -0.00100
C2393       C  0.89197126  0.50241179  0.72342391     0.01300
C2394       C  0.91800064  0.50096942  0.72144703     0.04100
C2395       C  0.92929985  0.50367420  0.69886735    -0.11900
C2396       C  0.91620014  0.51078862  0.67854188     0.23400
C2397       C  0.89157169  0.51464557  0.68014390    -0.12500
C2398       C  0.87939791  0.50946059  0.70150766     0.04800
C2399       C  0.92809241  0.51383619  0.65492436     0.27300
C2400       C  0.93464516  0.53674346  0.64713948    -0.13200
C2401       C  0.94336256  0.54004201  0.62370402     0.05400
C2402       C  0.94613027  0.52023683  0.60809738    -0.09200
C2403       C  0.94054027  0.49712168  0.61642890     0.06200
C2404       C  0.93118825  0.49405437  0.63955439    -0.13500
Br2405     Br  0.87433462  0.52592566  0.65177511    -0.05600
Br2406     Br  0.94097974  0.49948210  0.74775080     0.00000
Br2407     Br  0.95027815  0.57194474  0.61285619     0.00500
Br2408     Br  0.92249639  0.46261205  0.65014770    -0.03900
Br2409     Br  0.84516812  0.50817782  0.69722790     0.00600
Br2410     Br  0.96353671  0.49858592  0.69516916    -0.03200
Br2411     Br  0.93119590  0.56359637  0.66866868    -0.04100
Br2412     Br  0.94708864  0.46910844  0.59700071    -0.00100
C2413       C  0.89258427  0.49577257  0.77156760     0.01300
C2414       C  0.89376521  0.51298908  0.79121943     0.04100
C2415       C  0.90886810  0.50872117  0.81117164    -0.11900
C2416       C  0.91749655  0.48568272  0.81622450     0.23400
C2417       C  0.91529338  0.46775945  0.79908713    -0.12500
C2418       C  0.90478923  0.47294143  0.77648681     0.04800
C2419       C  0.92671970  0.48009821  0.84071488     0.27300
C2420       C  0.95107037  0.48275392  0.84626059    -0.13200
C2421       C  0.95914917  0.47998080  0.87008859     0.05400
C2422       C  0.94283972  0.47449299  0.88851890    -0.09200
C2423       C  0.91855449  0.47125183  0.88278255     0.06200
C2424       C  0.91054842  0.47403884  0.85895262    -0.13500
Br2425     Br  0.92751880  0.43595171  0.80697011    -0.05600
Br2426     Br  0.87162721  0.53935270  0.79830729     0.00000
Br2427     Br  0.99231616  0.48547629  0.87753962     0.00500
Br2428     Br  0.87722770  0.47004863  0.85126567    -0.03900
Br2429     Br  0.91026193  0.44808699  0.75293492     0.00600
Br2430     Br  0.91639713  0.53412007  0.83352625    -0.03200
Br2431     Br  0.97302837  0.49123972  0.82123109    -0.04100
Br2432     Br  0.89626007  0.46245674  0.90741262    -0.00100
C2433       C  0.86124785  0.47509845  0.74666401     0.01300
C2434       C  0.86164091  0.45749869  0.72719725     0.04100
C2435       C  0.84896518  0.43595475  0.72896889    -0.11900
C2436       C  0.83781696  0.42957442  0.75025811     0.23400
C2437       C  0.83716847  0.44545135  0.76946390    -0.12500
C2438       C  0.84841521  0.46775393  0.76796249     0.04800
C2439       C  0.82849373  0.40500151  0.75285792     0.27300
C2440       C  0.80586982  0.39953152  0.74358010    -0.13200
C2441       C  0.79832874  0.37569021  0.74335687     0.05400
C2442       C  0.81360852  0.35698747  0.75219397    -0.09200
C2443       C  0.83590889  0.36280277  0.76257396     0.06200
C2444       C  0.84323943  0.38672084  0.76285416    -0.13500
Br2445     Br  0.82002579  0.43607582  0.79800022    -0.05600
Br2446     Br  0.88276858  0.45632853  0.69957775     0.00000
Br2447     Br  0.76636813  0.36932738  0.73211961     0.00500
Br2448     Br  0.87389522  0.39456533  0.77642690    -0.03900
Br2449     Br  0.84359311  0.48774084  0.79585405     0.00600
Br2450     Br  0.84805210  0.41310959  0.70259414    -0.03200
Br2451     Br  0.78547428  0.42492788  0.73079997    -0.04100
Br2452     Br  0.85728681  0.33827034  0.77562157    -0.00100
C2453       C  0.64227446  0.25752485  0.69053366     0.01300
C2454       C  0.62984213  0.28000675  0.68831294     0.04100
C2455       C  0.60634090  0.28134770  0.67883712    -0.11900
C2456       C  0.59464249  0.26040663  0.67219461     0.23400
C2457       C  0.60654161  0.23801734  0.67510253    -0.12500
C2458       C  0.63023644  0.23651446  0.68381631     0.04800
C2459       C  0.57041086  0.26160269  0.66065975     0.27300
C2460       C  0.54976145  0.25874979  0.67435083    -0.13200
C2461       C  0.52740186  0.25427186  0.66324688     0.05400
C2462       C  0.52487127  0.25402041  0.63721704    -0.09200
C2463       C  0.54733488  0.25409854  0.62446996     0.06200
C2464       C  0.56877655  0.26064399  0.63573088    -0.13500
Br2465     Br  0.59041399  0.20913402  0.66654621    -0.05600
Br2466     Br  0.64401468  0.30928921  0.69907443     0.00000
Br2467     Br  0.50392339  0.24191214  0.68545730     0.00500
Br2468     Br  0.59732199  0.26588766  0.61701876    -0.03900
Br2469     Br  0.64619026  0.20536126  0.68473676     0.00600
Br2470     Br  0.58996191  0.31189003  0.67449475    -0.03200
Br2471     Br  0.55296388  0.26001427  0.70892117    -0.04100
Br2472     Br  0.55364365  0.23574409  0.59578104    -0.00100
C2473       C  0.75272089  0.36282133  0.52541210     0.01300
C2474       C  0.75149419  0.33678185  0.52712034     0.04100
C2475       C  0.74863548  0.32531180  0.54967041    -0.11900
C2476       C  0.75078581  0.33801229  0.57110583     0.23400
C2477       C  0.75504745  0.36246423  0.57036190    -0.12500
C2478       C  0.75508755  0.37496915  0.54833301     0.04800
C2479       C  0.74958679  0.32584428  0.59494481     0.27300
C2480       C  0.72809548  0.32638901  0.60802509    -0.13200
C2481       C  0.72802105  0.31984081  0.63245876     0.05400
C2482       C  0.74948669  0.31179583  0.64391427    -0.09200
C2483       C  0.77065641  0.30949293  0.63008119     0.06200
C2484       C  0.77068510  0.31673783  0.60583324    -0.13500
Br2485     Br  0.75951036  0.37903788  0.60062545    -0.05600
Br2486     Br  0.75810808  0.31384732  0.50162927     0.00000
Br2487     Br  0.69848498  0.32368144  0.65013923     0.00500
Br2488     Br  0.79977394  0.31467115  0.58734902    -0.03900
Br2489     Br  0.75451389  0.40928157  0.55228568     0.00600
Br2490     Br  0.74245605  0.29140758  0.55193253    -0.03200
Br2491     Br  0.69871724  0.33651985  0.59241426    -0.04100
Br2492     Br  0.79966163  0.29549523  0.64361586    -0.00100
C2493       C  0.98083875  0.24389004  0.86044372     0.01300
C2494       C  0.97156579  0.22256918  0.84912387     0.04100
C2495       C  0.94780731  0.22177710  0.84023376    -0.11900
C2496       C  0.93380366  0.24270252  0.83784978     0.23400
C2497       C  0.94331768  0.26437304  0.84500975    -0.12500
C2498       C  0.96461287  0.26480513  0.85884860     0.04800
C2499       C  0.90843470  0.24218383  0.82905290     0.27300
C2500       C  0.90296597  0.24698226  0.80479363    -0.13200
C2501       C  0.87891007  0.24960478  0.79714447     0.05400
C2502       C  0.85998697  0.24676006  0.81359857    -0.09200
C2503       C  0.86552417  0.24099304  0.83772640     0.06200
C2504       C  0.88959316  0.23900981  0.84543661    -0.13500
Br2505     Br  0.92525731  0.29361798  0.83725658    -0.05600
Br2506     Br  0.99046746  0.19366697  0.84360264     0.00000
Br2507     Br  0.87204814  0.25633438  0.76383504     0.00500
Br2508     Br  0.89682262  0.23236696  0.87867005    -0.03900
Br2509     Br  0.96388774  0.29286469  0.87907837     0.00600
Br2510     Br  0.93392437  0.19179173  0.83104565    -0.03200
Br2511     Br  0.92868946  0.25009198  0.78216278    -0.04100
Br2512     Br  0.84016388  0.23690135  0.86065467    -0.00100
C2513       C  0.74838086  0.13376586  0.97505973     0.01300
C2514       C  0.75047722  0.15965329  0.97305358     0.12900
C2515       C  0.75131126  0.17091207  0.95020416    -0.11900
C2516       C  0.74765765  0.15795153  0.92913431     0.23400
C2517       C  0.74302223  0.13364984  0.93042529    -0.12500
C2518       C  0.74484567  0.12135371  0.95243707     0.04800
C2519       C  0.74907953  0.16967401  0.90518786     0.27300
C2520       C  0.72880319  0.18144869  0.89523990    -0.13200
C2521       C  0.72996378  0.19173245  0.87221093     0.05400
C2522       C  0.75111131  0.18910578  0.85840675    -0.09200
C2523       C  0.77121832  0.17683697  0.86827461     0.06200
C2524       C  0.77033611  0.16769007  0.89173240    -0.13500
Br2525     Br  0.73475798  0.11710427  0.90104129    -0.05600
Br2526     Br  0.74950337  0.18256153  0.99917061     0.00000
Br2527     Br  0.70270140  0.21023667  0.86034549     0.00500
Br2528     Br  0.79830895  0.15188621  0.90506488    -0.03900
Br2529     Br  0.74630220  0.08697476  0.94871771     0.00600
Br2530     Br  0.75672498  0.20491541  0.94698383    -0.03200
Br2531     Br  0.69921139  0.18268250  0.91297925    -0.04100
Br2532     Br  0.79954093  0.17069360  0.84923085    -0.00100
C2533       C  0.60843695  0.00371203  0.78081957     0.01300
C2534       C  0.60881008  0.01960784  0.80170255     0.04100
C2535       C  0.59547526  0.01466836  0.82267999    -0.11900
C2536       C  0.58357743  0.99318536  0.82530876     0.23400
C2537       C  0.58351611  0.97691823  0.80637468    -0.12500
C2538       C  0.59530788  0.98190532  0.78452940     0.04800
C2539       C  0.57189066  0.98753929  0.84872281     0.27300
C2540       C  0.58476928  0.97484902  0.86674886    -0.13200
C2541       C  0.57496508  0.97228673  0.88989411     0.05400
C2542       C  0.55218219  0.98229449  0.89516428    -0.09200
C2543       C  0.53902457  0.99432767  0.87693355     0.06200
C2544       C  0.54877729  0.99682088  0.85379175    -0.13500
Br2545     Br  0.56634421  0.94756296  0.81081986    -0.05600
Br2546     Br  0.63062531  0.04549617  0.80759079     0.00000
Br2547     Br  0.59270881  0.95511189  0.91447303     0.00500
Br2548     Br  0.53091432  0.01371586  0.82909779    -0.03900
Br2549     Br  0.59067669  0.95816270  0.76001075     0.00600
Br2550     Br  0.59445640  0.03671385  0.84971687    -0.03200
Br2551     Br  0.61612368  0.96150183  0.85978620    -0.04100
Br2552     Br  0.50819556  0.00876832  0.88413189    -0.00100
C2553       C  0.55687602  0.01400580  0.61372386     0.01300
C2554       C  0.56284630  0.03634430  0.62390838     0.04100
C2555       C  0.57024931  0.03765810  0.64814080    -0.11900
C2556       C  0.57291389  0.01666229  0.66210250     0.23400
C2557       C  0.56569977  0.99468424  0.65238281    -0.12500
C2558       C  0.55713192  0.99347523  0.62864491     0.04800
C2559       C  0.58467986  0.01730538  0.68633378     0.27300
C2560       C  0.60944487  0.01963538  0.68799891    -0.13200
C2561       C  0.62142217  0.01697459  0.71028201     0.05400
C2562       C  0.60874354  0.01137191  0.73231453    -0.09200
C2563       C  0.58271954  0.01192275  0.73013577     0.06200
C2564       C  0.57137448  0.01460544  0.70733895    -0.13500
Br2565     Br  0.56745665  0.96588191  0.67145191    -0.05600
Br2566     Br  0.56217479  0.06524377  0.60482530     0.00000
Br2567     Br  0.65596058  0.01682544  0.70751076     0.00500
Br2568     Br  0.53679221  0.01554329  0.70410477    -0.03900
Br2569     Br  0.54411704  0.96372805  0.61745357     0.00600
Br2570     Br  0.57696666  0.06822852  0.66241911    -0.03200
Br2571     Br  0.62732971  0.02424531  0.65857770    -0.04100
Br2572     Br  0.55996238  0.01209316  0.75644104    -0.00100
C2573       C  0.68890400  0.14821047  0.75518644     0.01300
C2574       C  0.69641971  0.13176383  0.73738185     0.04100
C2575       C  0.68914812  0.10780037  0.73835828    -0.11900
C2576       C  0.67497164  0.09996922  0.75755629     0.23400
C2577       C  0.66872076  0.11612895  0.77607249    -0.12500
C2578       C  0.67532658  0.14020289  0.77471581     0.04800
C2579       C  0.66372800  0.07604717  0.75670749     0.27300
C2580       C  0.63972693  0.07490547  0.75023830    -0.13200
C2581       C  0.62724347  0.05374802  0.75385930     0.05400
C2582       C  0.63951058  0.03084610  0.75784672    -0.09200
C2583       C  0.66540074  0.03230147  0.76066201     0.06200
C2584       C  0.67630391  0.05491438  0.76290731    -0.13500
Br2585     Br  0.65049518  0.10547363  0.80312619    -0.05600
Br2586     Br  0.71755188  0.14177469  0.71222253     0.00000
Br2587     Br  0.59332705  0.05940833  0.75766505     0.00500
Br2588     Br  0.70896302  0.05742507  0.77409680    -0.03900
Br2589     Br  0.66454514  0.16253129  0.79903059     0.00600
Br2590     Br  0.69792935  0.08586090  0.71303316    -0.03200
Br2591     Br  0.62362478  0.10321649  0.73710171    -0.04100
Br2592     Br  0.68884832  0.00632414  0.75749824    -0.00100
C2593       C  0.80741747  0.64201449  0.75191510     0.01300
C2594       C  0.80634488  0.62862715  0.73038154     0.04100
C2595       C  0.81495904  0.60472979  0.72983676    -0.11900
C2596       C  0.82378908  0.59368694  0.75089680     0.23400
C2597       C  0.82349258  0.60646670  0.77265187    -0.12500
C2598       C  0.81592274  0.63067350  0.77311153     0.04800
C2599       C  0.83602861  0.56973696  0.74954854     0.27300
C2600       C  0.82328060  0.54869220  0.75187157    -0.13200
C2601       C  0.83487331  0.52588332  0.74966080     0.05400
C2602       C  0.86092855  0.52370200  0.74826574    -0.09200
C2603       C  0.87308388  0.54629088  0.74558948     0.06200
C2604       C  0.86054110  0.56848327  0.74528330    -0.13500
Br2605     Br  0.83407632  0.59095493  0.80183006    -0.05600
Br2606     Br  0.79244870  0.64241878  0.70155713     0.00000
Br2607     Br  0.81211695  0.50048857  0.74489749     0.00500
Br2608     Br  0.87711032  0.59823963  0.74028588    -0.03900
Br2609     Br  0.81943175  0.64851937  0.80252935     0.00600
Br2610     Br  0.81552941  0.58713948  0.70005716    -0.03200
Br2611     Br  0.78911038  0.55194209  0.75729097    -0.04100
Br2612     Br  0.90742719  0.54957741  0.74663708    -0.00100
C2613       C  0.75619160  0.81479213  0.64097915     0.01300
C2614       C  0.76181155  0.79865142  0.62213099     0.04100
C2615       C  0.76055924  0.80635644  0.59801922    -0.11900
C2616       C  0.75360163  0.83012715  0.59248846     0.23400
C2617       C  0.74773163  0.84616409  0.61116733    -0.12500
C2618       C  0.74906938  0.83862045  0.63527093     0.04800
C2619       C  0.75439970  0.83915350  0.56729558     0.27300
C2620       C  0.77539119  0.84900333  0.55891310    -0.13200
C2621       C  0.77515762  0.86358376  0.53819224     0.05400
C2622       C  0.75483408  0.86397976  0.52153645    -0.09200
C2623       C  0.73394656  0.85185670  0.53036785     0.06200
C2624       C  0.73377647  0.84050783  0.55311664    -0.13500
Br2625     Br  0.73822405  0.87878073  0.60360300    -0.05600
Br2626     Br  0.77014694  0.76558348  0.62894350     0.00000
Br2627     Br  0.80066620  0.88648940  0.54042925     0.00500
Br2628     Br  0.70531978  0.82567201  0.56519671    -0.03900
Br2629     Br  0.74227248  0.86158884  0.66035919     0.00600
Br2630     Br  0.76856103  0.78453413  0.57234262    -0.03200
Br2631     Br  0.80440119  0.84379092  0.57782440    -0.04100
Br2632     Br  0.70499250  0.84810454  0.51189217    -0.00100
C2633       C  0.64415611  0.76479527  0.80867278     0.01300
C2634       C  0.63466984  0.78663005  0.81787900     0.04100
C2635       C  0.61060561  0.78832053  0.82518589    -0.11900
C2636       C  0.59638246  0.76786748  0.82494369     0.23400
C2637       C  0.60551501  0.74635998  0.81500103    -0.12500
C2638       C  0.62906132  0.74499501  0.80632872     0.04800
C2639       C  0.57257792  0.76825276  0.83683918     0.27300
C2640       C  0.57133959  0.76820621  0.86182442    -0.13200
C2641       C  0.54922401  0.76567275  0.87355365     0.05400
C2642       C  0.52731408  0.76130163  0.86032344    -0.09200
C2643       C  0.52910494  0.76427069  0.83430179     0.06200
C2644       C  0.55158482  0.76758679  0.82324783    -0.13500
Br2645     Br  0.58588187  0.71847121  0.81350013    -0.05600
Br2646     Br  0.65478568  0.81382745  0.82252549     0.00000
Br2647     Br  0.55205720  0.76442615  0.90808969     0.00500
Br2648     Br  0.55445437  0.77236420  0.78883863    -0.03900
Br2649     Br  0.63994020  0.71609067  0.79025614     0.00600
Br2650     Br  0.59706647  0.81852429  0.83603559    -0.03200
Br2651     Br  0.60107273  0.76911130  0.88003305    -0.04100
Br2652     Br  0.50272366  0.76852179  0.81152349    -0.00100
C2653       C  0.69356568  0.86444257  0.74812040     0.01300
C2654       C  0.70894509  0.88358958  0.74356412     0.04100
C2655       C  0.70049835  0.90745704  0.74607093    -0.11900
C2656       C  0.67677145  0.91230568  0.75335813     0.23400
C2657       C  0.66147458  0.89321895  0.75805744    -0.12500
C2658       C  0.66974944  0.86941433  0.75530130     0.04800
C2659       C  0.66680585  0.93727635  0.75367440     0.27300
C2660       C  0.66450140  0.94997063  0.77510440    -0.13200
C2661       C  0.65241515  0.97258022  0.77568070     0.05400
C2662       C  0.63988391  0.98234082  0.75476369    -0.09200
C2663       C  0.64083764  0.96669462  0.73375844     0.06200
C2664       C  0.65665897  0.94667448  0.73277719    -0.13500
Br2665     Br  0.62886132  0.89978886  0.76781119    -0.05600
Br2666     Br  0.74187383  0.87729040  0.73491438     0.00000
Br2667     Br  0.65597824  0.98935132  0.80574135     0.00500
Br2668     Br  0.66276897  0.92978147  0.70281545    -0.03900
Br2669     Br  0.64783926  0.84367909  0.76014222     0.00600
Br2670     Br  0.72114141  0.93368089  0.73915551    -0.03200
Br2671     Br  0.67885178  0.93592920  0.80369960    -0.04100
Br2672     Br  0.61744114  0.96437591  0.70810673    -0.00100
C2673       C  0.74328642  0.68836225  0.85617203     0.01300
C2674       C  0.73566161  0.70251562  0.87587901     0.04100
C2675       C  0.73524390  0.69262472  0.89923119    -0.11900
C2676       C  0.74344018  0.66884976  0.90343342     0.23400
C2677       C  0.75138940  0.65492765  0.88372512    -0.12500
C2678       C  0.75048916  0.66430196  0.86024546     0.04800
C2679       C  0.74241729  0.65847995  0.92835707     0.27300
C2680       C  0.75996883  0.66355201  0.94550938    -0.13200
C2681       C  0.75791843  0.65552397  0.96961963     0.05400
C2682       C  0.73937652  0.63952053  0.97692107    -0.09200
C2683       C  0.71971333  0.63865871  0.95998365     0.06200
C2684       C  0.72201879  0.64661381  0.93589145    -0.13500
Br2685     Br  0.76414675  0.62306681  0.88824828    -0.05600
Br2686     Br  0.72677032  0.73584683  0.87137439     0.00000
Br2687     Br  0.77749988  0.67240102  0.99195504     0.00500
Br2688     Br  0.69693697  0.64136563  0.91250774    -0.03900
Br2689     Br  0.75747366  0.64332862  0.83344968     0.00600
Br2690     Br  0.72334578  0.71169004  0.92565839    -0.03200
Br2691     Br  0.78715686  0.68175044  0.93547562    -0.04100
Br2692     Br  0.68714765  0.63425778  0.96880737    -0.00100
C2693       C  0.86058113  0.74435899  0.69151178     0.01300
C2694       C  0.87381592  0.76564418  0.69118503     0.04100
C2695       C  0.89744270  0.76544686  0.68249631    -0.11900
C2696       C  0.90892174  0.74377702  0.67562294     0.23400
C2697       C  0.89668581  0.72217012  0.67829069    -0.12500
C2698       C  0.87245790  0.72243584  0.68550090     0.04800
C2699       C  0.93310251  0.74398762  0.66400309     0.27300
C2700       C  0.93487965  0.74133736  0.63917570    -0.13200
C2701       C  0.95699622  0.74402653  0.62736572     0.05400
C2702       C  0.97887068  0.74959247  0.64030159    -0.09200
C2703       C  0.97660484  0.74972531  0.66636839     0.06200
C2704       C  0.95389318  0.74747092  0.67752086    -0.13500
Br2705     Br  0.91327787  0.69219778  0.67164674    -0.05600
Br2706     Br  0.86053633  0.79514619  0.70423882     0.00000
Br2707     Br  0.95408252  0.74379475  0.59277460     0.00500
Br2708     Br  0.95056090  0.74822420  0.71213973    -0.03900
Br2709     Br  0.85567242  0.69265855  0.68568364     0.00600
Br2710     Br  0.91387748  0.79521311  0.67974287    -0.03200
Br2711     Br  0.90572285  0.73589150  0.62104459    -0.04100
Br2712     Br  0.00280210  0.74961764  0.68942017    -0.00100
loop_ 
_geom_bond_atom_site_label_1 
_geom_bond_atom_site_label_2 
_geom_bond_distance 
_geom_bond_site_symmetry_2 
_ccdc_geom_bond_type 
O1           Mg3   2.130       .  S
O1           Mg9   2.140       .  S
O1           C36   1.236       .  S
C2           O15   1.240       .  S
C2           O39   1.274       .  A
C2           H41   1.081       .  S
Mg3          O32   2.136       .  S
Mg3          O47   2.304       .  S
Mg3          O43   2.242       .  S
Mg3          O14   2.299       .  S
O4          Mg46   2.132       .  S
O4          Mg29   2.148       .  S
O4           C25   1.239       .  S
O5           C36   1.270       .  A
O5          Mg29   2.293       .  S
C6            O8   1.274       .  A
C6           O20   1.280       .  A
C6         C2613   1.491       .  S
O7           C35   1.271       .  A
O7           Mg9   2.301       .  S
O8          Mg40   2.264       .  S
Mg9          O15   2.137       .  S
Mg9          O23   2.263       .  S
Mg9          O11   2.322       .  S
C10          O48   1.275       .  A
C10          O16   1.276       .  A
C10        C2693   1.499       .  S
O11          C18   1.277       .  A
H12          C25   1.081       .  S
C13          O27   1.237       .  S
C13          O28   1.272       .  A
C13          H38   1.081       .  S
O14          C37   1.273       .  A
O15         Mg29   2.146       .  S
O16         Mg46   2.327       .  S
C17          O30   1.271       .  A
C17          O22   1.275       .  A
C17        C2593   1.487       .  S
C18          O45   1.274       .  A
C18        C2673   1.493       .  S
Mg19         O26   2.141       .  S
Mg19         O27   2.133       .  S
Mg19         O20   2.337       .  S
Mg19         O21   2.314       .  S
Mg19         O48   2.283       .  S
O21          C25   1.274       .  A
O22         Mg29   2.315       .  S
O23          C42   1.273       .  A
O24          C44   1.279       .  A
O24         Mg40   2.337       .  S
O26         Mg40   2.150       .  S
O26          C37   1.239       .  S
O27         Mg46   2.142       .  S
O28         Mg40   2.303       .  S
Mg29         O45   2.274       .  S
O30         Mg46   2.261       .  S
H31          C36   1.081       .  S
O32         Mg40   2.133       .  S
O32          C35   1.237       .  S
H33          C35   1.081       .  S
H34          C37   1.081       .  S
O39         Mg46   2.310       .  S
C42          O47   1.274       .  A
C42        C2633   1.485       .  S
O43          C44   1.270       .  A
C44        C2653   1.483       .  S
C49        C2533   1.623       .  S
C49        C2562   1.617       .  S
C49        C2582   1.610       .  S
C49        C2662   1.620   1_545  S
O50         Mg52   2.139       .  S
O50         Mg58   2.139       .  S
O50          C85   1.239       .  S
C51          O64   1.238       .  S
C51          O88   1.272       .  A
C51          H90   1.081       .  S
Mg52         O81   2.132       .  S
Mg52         O96   2.322       .  S
Mg52         O92   2.279       .  S
Mg52         O63   2.302       .  S
O53         Mg95   2.128       .  S
O53         Mg78   2.128       .  S
O53          C74   1.239       .  S
O54          C85   1.273       .  A
O54         Mg78   2.304       .  S
C55          O57   1.272       .  A
C55          O69   1.278       .  A
C55        C2442   1.490       .  S
O56          C84   1.272       .  A
O56         Mg58   2.298       .  S
O57         Mg89   2.254       .  S
Mg58         O64   2.127       .  S
Mg58         O72   2.238       .  S
Mg58         O60   2.287       .  S
C59          O97   1.276       .  A
C59          O65   1.274       .  A
C59        C2482   1.495       .  S
O60          C67   1.272       .  A
H61          C74   1.081       .  S
C62          O76   1.239       .  S
C62          O77   1.273       .  A
C62          H87   1.081       .  S
O63          C86   1.272       .  A
O64         Mg78   2.140       .  S
O65         Mg95   2.301       .  S
C66          O79   1.272       .  A
C66          O71   1.279       .  A
C66        C2453   1.502       .  S
C67          O94   1.274       .  A
C67        C2573   1.480       .  S
Mg68         O75   2.146       .  S
Mg68         O76   2.144       .  S
Mg68         O69   2.320       .  S
Mg68         O70   2.305       .  S
Mg68         O97   2.294       .  S
O70          C74   1.273       .  A
O71         Mg78   2.338       .  S
O72          C91   1.268       .  A
O73          C93   1.281       .  A
O73         Mg89   2.348       .  S
O75         Mg89   2.149       .  S
O75          C86   1.238       .  S
O76         Mg95   2.146       .  S
O77         Mg89   2.306       .  S
Mg78         O94   2.283       .  S
O79         Mg95   2.276       .  S
H80          C85   1.081       .  S
O81         Mg89   2.121       .  S
O81          C84   1.239       .  S
H82          C84   1.081       .  S
H83          C86   1.081       .  S
O88         Mg95   2.302       .  S
C91          O96   1.277       .  A
C91        C2522   1.483       .  S
O92          C93   1.275       .  A
C93        C2502   1.494       .  S
C98        C2393   1.609       .  S
C98        C2413   1.615       .  S
C98        C2433   1.616       .  S
C98        C2602   1.612       .  S
C99        C2333   1.610       .  S
C99        C2353   1.617       .  S
C99        C2373   1.611       .  S
C99        C2622   1.618       .  S
O100       Mg102   2.124       .  S
O100       Mg108   2.138       .  S
O100        C135   1.238       .  S
C101        O114   1.239       .  S
C101        O138   1.273       .  A
C101        H140   1.081       .  S
Mg102       O131   2.136       .  S
Mg102       O146   2.317       .  S
Mg102       O142   2.246       .  S
Mg102       O113   2.304       .  S
O103       Mg145   2.136       .  S
O103       Mg128   2.132       .  S
O103        C124   1.238       .  S
O104        C135   1.271       .  A
O104       Mg128   2.295       .  S
C105        O107   1.273       .  A
C105        O119   1.275       .  A
C105       C2382   1.484       .  S
O106        C134   1.272       .  A
O106       Mg108   2.302       .  S
O107       Mg139   2.269       .  S
Mg108       O114   2.151       .  S
Mg108       O122   2.291       .  S
Mg108       O110   2.313       .  S
C109        O147   1.273       .  A
C109        O115   1.278       .  A
C109       C2273   1.492       .  S
O110        C117   1.276       .  A
H111        C124   1.081       .  S
C112        O126   1.239       .  S
C112        O127   1.273       .  A
C112        H137   1.081       .  S
O113        C136   1.273       .  A
O114       Mg128   2.147       .  S
O115       Mg145   2.332       .  S
C116        O129   1.273       .  A
C116        O121   1.277       .  A
C116       C2293   1.492       .  S
C117        O144   1.272       .  A
C117       C2242   1.484       .  S
Mg118       O125   2.141       .  S
Mg118       O126   2.145       .  S
Mg118       O119   2.308       .  S
Mg118       O120   2.296       .  S
Mg118       O147   2.267       .  S
O120        C124   1.271       .  A
O121       Mg128   2.321       .  S
O122        C141   1.275       .  A
O123        C143   1.277       .  A
O123       Mg139   2.326       .  S
O125       Mg139   2.138       .  S
O125        C136   1.239       .  S
O126       Mg145   2.134       .  S
O127       Mg139   2.305       .  S
Mg128       O144   2.251       .  S
O129       Mg145   2.274       .  S
H130        C135   1.081       .  S
O131       Mg139   2.136       .  S
O131        C134   1.238       .  S
H132        C134   1.081       .  S
H133        C136   1.081       .  S
O138       Mg145   2.310       .  S
C141        O146   1.276       .  A
C141       C2313   1.497       .  S
O142        C143   1.270       .  A
C143       C2253   1.472       .  S
C148       C2193   1.605   1_554  S
C148       C2222   1.623       .  S
C148       C2233   1.614       .  S
C148       C2682   1.628   1_554  S
C149       C2142   1.612       .  S
C149       C2153   1.616       .  S
C149       C2173   1.620       .  S
C149       C2282   1.621       .  S
C150       C2053   1.607   1_545  S
C150       C2082   1.612       .  S
C150       C2093   1.612       .  S
C150       C2122   1.609       .  S
C151       C2002   1.616   1_556  S
C151       C2022   1.613       .  S
C151       C2033   1.613   1_556  S
C151       C2513   1.608       .  S
C152       C1913   1.611       .  S
C152       C1933   1.611       .  S
C152       C1953   1.611       .  S
C152       C1973   1.611       .  S
C153       C1862   1.617       .  S
C153       C1873   1.615       .  S
C153       C1893   1.613       .  S
C153       C2473   1.615       .  S
C154       C1793   1.614       .  S
C154       C1822   1.611       .  S
C154       C1833   1.614       .  S
C154       C2302   1.611       .  S
C155       C1722   1.608       .  S
C155       C1733   1.613       .  S
C155       C1762   1.614       .  S
C155       C1782   1.604       .  S
C156       C1653   1.616       .  S
C156       C1673   1.612   1_455  S
C156       C1693   1.608       .  S
C156       C2322   1.608   1_455  S
O157       Mg159   2.123       .  S
O157       Mg165   2.140       .  S
O157        C192   1.237       .  S
C158        O171   1.238       .  S
C158        O195   1.272       .  A
C158        H197   1.081       .  S
Mg159       O188   2.146       .  S
Mg159       O203   2.300       .  S
Mg159       O199   2.248       .  S
Mg159       O170   2.299       .  S
O160       Mg202   2.144       .  S
O160       Mg185   2.144       .  S
O160        C181   1.237       .  S
O161        C192   1.271       .  A
O161       Mg185   2.295       .  S
C162        O164   1.273       .  A
C162        O176   1.275       .  A
C162       C1633   1.479       .  S
O163        C191   1.272       .  A
O163       Mg165   2.301       .  S
O164       Mg196   2.270       .  S
Mg165       O171   2.136       .  S
Mg165       O179   2.271       .  S
Mg165       O167   2.311       .  S
C166        O204   1.273       .  A
C166        O172   1.277       .  A
C166       C1662   1.487       .  S
O167        C174   1.276       .  A
H168        C181   1.081       .  S
C169        O183   1.238       .  S
C169        O184   1.272       .  A
C169        H194   1.081       .  S
O170        C193   1.271       .  A
O171       Mg185   2.145       .  S
O172       Mg202   2.319       .  S
C173        O186   1.272       .  A
C173        O178   1.277       .  A
C173       C1602   1.480       .  S
C174        O201   1.275       .  A
C174       C1613   1.484       .  S
Mg175       O182   2.133       .  S
Mg175       O183   2.146       .  S
Mg175       O176   2.301       .  S
Mg175       O177   2.300       .  S
Mg175       O204   2.273       .  S
O177        C181   1.271       .  A
O178       Mg185   2.313       .  S
O179        C198   1.273       .  A
O180        C200   1.276       .  A
O180       Mg196   2.312       .  S
O182       Mg196   2.147       .  S
O182        C193   1.237       .  S
O183       Mg202   2.136       .  S
O184       Mg196   2.302       .  S
Mg185       O201   2.287       .  S
O186       Mg202   2.257       .  S
H187        C192   1.081       .  S
O188       Mg196   2.137       .  S
O188        C191   1.239       .  S
H189        C191   1.081       .  S
H190        C193   1.081       .  S
O195       Mg202   2.303       .  S
C198        O203   1.274       .  A
C198       C2133   1.479       .  S
O199        C200   1.270       .  A
C200       C1773   1.474       .  S
C205       C1533   1.612   1_554  S
C205       C1562   1.606       .  S
C205       C1582   1.611   1_554  S
C205       C1593   1.609       .  S
C206       C1473   1.623       .  S
C206       C1502   1.605       .  S
C206       C1513   1.596       .  S
C206       C2462   1.614       .  S
O207       Mg209   2.132       .  S
O207       Mg215   2.151       .  S
O207        C242   1.237       .  S
C208        O221   1.237       .  S
C208        O245   1.271       .  A
C208        H247   1.081       .  S
Mg209       O238   2.149       .  S
Mg209       O253   2.305       .  S
Mg209       O249   2.259       .  S
Mg209       O220   2.301       .  S
O210       Mg252   2.146       .  S
O210       Mg235   2.142       .  S
O210        C231   1.239       .  S
O211        C242   1.270       .  A
O211       Mg235   2.295       .  S
C212        O214   1.273       .  A
C212        O226   1.284       .  A
C212       C1462   1.496       .  S
O213        C241   1.272       .  A
O213       Mg215   2.301       .  S
O214       Mg246   2.271       .  S
Mg215       O221   2.131       .  S
Mg215       O229   2.278       .  S
Mg215       O217   2.322       .  S
C216        O254   1.276       .  A
C216        O222   1.273       .  A
C216       C2073   1.477       .  S
O217        C224   1.279       .  A
H218        C231   1.081       .  S
C219        O233   1.237       .  S
C219        O234   1.272       .  A
C219        H244   1.081       .  S
O220        C243   1.273       .  A
O221       Mg235   2.152       .  S
O222       Mg252   2.288       .  S
C223        O236   1.274       .  A
C223        O228   1.275       .  A
C223       C1413   1.486       .  S
C224        O251   1.273       .  A
C224       C1442   1.485       .  S
Mg225       O232   2.144       .  S
Mg225       O233   2.148       .  S
Mg225       O226   2.366       .  S
Mg225       O227   2.310       .  S
Mg225       O254   2.284       .  S
O227        C231   1.274       .  A
O228       Mg235   2.311       .  S
O229        C248   1.274       .  A
O230        C250   1.276       .  A
O230       Mg246   2.315       .  S
O232       Mg246   2.145       .  S
O232        C243   1.239       .  S
O233       Mg252   2.154       .  S
O234       Mg246   2.304       .  S
Mg235       O251   2.264       .  S
O236       Mg252   2.290       .  S
H237        C242   1.081       .  S
O238       Mg246   2.141       .  S
O238        C241   1.238       .  S
H239        C241   1.081       .  S
H240        C243   1.081       .  S
O245       Mg252   2.293       .  S
C248        O253   1.275       .  A
C248       C1942   1.483       .  S
O249        C250   1.270       .  A
C250       C1522   1.474       .  S
C255       C1373   1.614       .  S
C255       C1393   1.609       .  S
C255       C1422   1.614       .  S
C255       C2493   1.625   1_455  S
O256       Mg258   2.130       .  S
O256       Mg264   2.141       .  S
O256        C291   1.237       .  S
C257        O270   1.236       .  S
C257        O294   1.269       .  A
C257        H296   1.081       .  S
Mg258       O287   2.146       .  S
Mg258       O302   2.323       .  S
Mg258       O298   2.255       .  S
Mg258       O269   2.308       .  S
O259       Mg301   2.154       .  S
O259       Mg284   2.147       .  S
O259        C280   1.239       .  S
O260        C291   1.270       .  A
O260       Mg284   2.296       .  S
C261        O263   1.275       .  A
C261        O275   1.277       .  A
C261       C1853   1.498       .  S
O262        C290   1.272       .  A
O262       Mg264   2.300       .  S
O263       Mg295   2.287       .  S
Mg264       O270   2.116       .  S
Mg264       O278   2.240       .  S
Mg264       O266   2.303       .  S
C265        O303   1.274       .  A
C265        O271   1.273       .  A
C265       C1842   1.492       .  S
O266        C273   1.275       .  A
H267        C280   1.081       .  S
C268        O282   1.239       .  S
C268        O283   1.273       .  A
C268        H293   1.081       .  S
O269        C292   1.273       .  A
O270       Mg284   2.145       .  S
O271       Mg301   2.298       .  S
C272        O285   1.271       .  A
C272        O277   1.276       .  A
C272       C1353   1.482       .  S
C273        O300   1.276       .  A
C273       C1993   1.490       .  S
Mg274       O281   2.146       .  S
Mg274       O282   2.132       .  S
Mg274       O275   2.326       .  S
Mg274       O276   2.309       .  S
Mg274       O303   2.291       .  S
O276        C280   1.273       .  A
O277       Mg284   2.303       .  S
O278        C297   1.269       .  A
O279        C299   1.279       .  A
O279       Mg295   2.334       .  S
O281       Mg295   2.140       .  S
O281        C292   1.238       .  S
O282       Mg301   2.141       .  S
O283       Mg295   2.311       .  S
Mg284       O300   2.291       .  S
O285       Mg301   2.255       .  S
H286        C291   1.081       .  S
O287       Mg295   2.148       .  S
O287        C290   1.238       .  S
H288        C290   1.081       .  S
H289        C292   1.081       .  S
O294       Mg301   2.288       .  S
C297        O302   1.277       .  A
C297       C1313   1.482       .  S
O298        C299   1.272       .  A
C299       C1342   1.482       .  S
C304       C1273   1.616       .  S
C304       C1293   1.610       .  S
C304       C1322   1.600   1_565  S
C304       C2262   1.612       .  S
C305       C1213   1.614       .  S
C305       C1233   1.613       .  S
C305       C1253   1.614       .  S
C305       C1333   1.616   1_455  S
O306       Mg308   2.134       .  S
O306       Mg314   2.136       .  S
O306        C341   1.239       .  S
C307        O320   1.237       .  S
C307        O344   1.272       .  A
C307        H346   1.081       .  S
Mg308       O337   2.139       .  S
Mg308       O352   2.320       .  S
Mg308       O348   2.265       .  S
Mg308       O319   2.296       .  S
O309       Mg351   2.146       .  S
O309       Mg334   2.149       .  S
O309        C330   1.238       .  S
O310        C341   1.273       .  A
O310       Mg334   2.306       .  S
C311        O313   1.270       .  A
C311        O325   1.280       .  A
C311       C1173   1.485       .  S
O312        C340   1.271       .  A
O312       Mg314   2.293       .  S
O313       Mg345   2.242       .  S
Mg314       O320   2.150       .  S
Mg314       O328   2.271       .  S
Mg314       O316   2.320       .  S
C315        O353   1.272       .  A
C315        O321   1.278       .  A
C315       C1142   1.501       .  S
O316        C323   1.276       .  A
H317        C330   1.081       .  S
C318        O332   1.239       .  S
C318        O333   1.273       .  A
C318        H343   1.081       .  S
O319        C342   1.272       .  A
O320       Mg334   2.130       .  S
O321       Mg351   2.342       .  S
C322        O335   1.274       .  A
C322        O327   1.277       .  A
C322       C1262   1.491       .  S
C323        O350   1.272       .  A
C323       C1113   1.484       .  S
Mg324       O331   2.133       .  S
Mg324       O332   2.147       .  S
Mg324       O325   2.347       .  S
Mg324       O326   2.304       .  S
Mg324       O353   2.252       .  S
O326        C330   1.272       .  A
O327       Mg334   2.332       .  S
O328        C347   1.274       .  A
O329        C349   1.276       .  A
O329       Mg345   2.320       .  S
O331       Mg345   2.137       .  S
O331        C342   1.239       .  S
O332       Mg351   2.144       .  S
O333       Mg345   2.304       .  S
Mg334       O350   2.257       .  S
O335       Mg351   2.267       .  S
H336        C341   1.081       .  S
O337       Mg345   2.120       .  S
O337        C340   1.238       .  S
H338        C340   1.081       .  S
H339        C342   1.081       .  S
O344       Mg351   2.309       .  S
C347        O352   1.276       .  A
C347       C1193   1.476       .  S
O348        C349   1.273       .  A
C349       C1153   1.475       .  S
C354       C1073   1.607   1_556  S
C354       C1093   1.619       .  S
C354       C1202   1.615   1_556  S
C354       C1433   1.619       .  S
C355       C1033   1.618       .  S
C355       C1062   1.611       .  S
C355       C1182   1.618   1_565  S
C355       C1622   1.609       .  S
O356       Mg358   2.128       .  S
O356       Mg364   2.138   1_545  S
O356        C391   1.238       .  S
C357        O370   1.237   1_455  S
C357        O394   1.271       .  A
C357        H396   1.081       .  S
Mg358       O387   2.154   1_655  S
Mg358       O402   2.347       .  S
Mg358       O398   2.258       .  S
Mg358       O369   2.302       .  S
O359       Mg401   2.144   1_655  S
O359       Mg384   2.144       .  S
O359        C380   1.239   1_565  S
O360        C391   1.272   1_565  A
O360       Mg384   2.301       .  S
C361        O363   1.273       .  A
C361        O375   1.276       .  A
C361       C1022   1.484       .  S
O362        C390   1.272   1_565  A
O362       Mg364   2.296   1_455  S
O363       Mg395   2.264       .  S
Mg364       O370   2.141       .  S
Mg364       O378   2.253       .  S
Mg364       O366   2.324       .  S
C365        O403   1.273   1_565  A
C365        O371   1.276       .  A
C365       C2102   1.481       .  S
O366        C373   1.276       .  A
H367        C380   1.081   1_565  S
C368        O382   1.238       .  S
C368        O383   1.273   1_565  A
C368        H393   1.081       .  S
O369        C392   1.271       .  A
O370       Mg384   2.134       .  S
O371       Mg401   2.324       .  S
C372        O385   1.271   1_655  A
C372        O377   1.275       .  A
C372        C993   1.474       .  S
C373        O400   1.271       .  A
C373       C2342   1.488       .  S
Mg374       O381   2.149       .  S
Mg374       O382   2.135   1_545  S
Mg374       O375   2.316       .  S
Mg374       O376   2.306   1_455  S
Mg374       O403   2.273       .  S
O376        C380   1.273       .  A
O377       Mg384   2.310       .  S
O378        C397   1.272   1_565  A
O379        C399   1.277       .  A
O379       Mg395   2.319       .  S
O381       Mg395   2.144       .  S
O381        C392   1.237   1_455  S
O382       Mg401   2.132       .  S
O383       Mg395   2.305       .  S
Mg384       O400   2.260       .  S
O385       Mg401   2.254       .  S
H386        C391   1.081       .  S
O387       Mg395   2.140       .  S
O387        C390   1.238       .  S
H388        C390   1.081       .  S
H389        C392   1.081       .  S
O394       Mg401   2.303       .  S
C397        O402   1.280       .  A
C397       C1302   1.494       .  S
O398        C399   1.273   1_655  A
C399       C1242   1.489       .  S
O404       Mg406   2.142   1_545  S
O404       Mg412   2.148   1_455  S
O404        C439   1.238       .  S
C405        O418   1.238       .  S
C405        O442   1.272   1_545  A
C405        H444   1.081       .  S
Mg406       O435   2.148       .  S
Mg406       O450   2.317   1_565  S
Mg406       O446   2.283       .  S
Mg406       O417   2.302   1_556  S
O407       Mg449   2.148   1_545  S
O407       Mg432   2.139       .  S
O407        C428   1.237       .  S
O408        C439   1.272   1_554  A
O408       Mg432   2.301   1_455  S
C409        O411   1.272       .  A
C409        O423   1.275       .  A
C409       C1702   1.483       .  S
O410        C438   1.271       .  A
O410       Mg412   2.299   1_465  S
O411       Mg443   2.271   1_554  S
Mg412       O418   2.135       .  S
Mg412       O426   2.261   1_655  S
Mg412       O414   2.307       .  S
C413        O451   1.272       .  A
C413        O419   1.277       .  A
C413       C1282   1.485       .  S
O414        C421   1.276       .  A
H415        C428   1.081       .  S
C416        O430   1.238       .  S
C416        O431   1.272   1_554  A
C416        H441   1.081       .  S
O417        C440   1.272       .  A
O418       Mg432   2.144   1_556  S
O419       Mg449   2.319       .  S
C420        O433   1.272       .  A
C420        O425   1.277       .  A
C420       C2042   1.482       .  S
C421        O448   1.274       .  A
C421       C1402   1.484       .  S
Mg422       O429   2.137       .  S
Mg422       O430   2.143   1_455  S
Mg422       O423   2.303       .  S
Mg422       O424   2.300   1_465  S
Mg422       O451   2.268   1_455  S
O424        C428   1.271       .  A
O425       Mg432   2.315       .  S
O426        C445   1.272       .  A
O427        C447   1.275       .  A
O427       Mg443   2.302       .  S
O429       Mg443   2.144   1_554  S
O429        C440   1.238       .  S
O430       Mg449   2.137       .  S
O431       Mg443   2.302   1_655  S
Mg432       O448   2.284   1_554  S
O433       Mg449   2.263   1_545  S
H434        C439   1.081       .  S
O435       Mg443   2.135       .  S
O435        C438   1.238       .  S
H436        C438   1.081       .  S
H437        C440   1.081       .  S
O442       Mg449   2.301   1_556  S
C445        O450   1.277       .  A
C445       C2113   1.479       .  S
O446        C447   1.274       .  A
C447       C1573   1.485       .  S
O452       Mg454   2.147       .  S
O452       Mg460   2.150       .  S
O452        C487   1.238       .  S
C453        O466   1.238       .  S
C453        O490   1.272   1_565  A
C453        H492   1.081       .  S
Mg454       O483   2.148       .  S
Mg454       O498   2.333       .  S
Mg454       O494   2.271       .  S
Mg454       O465   2.300       .  S
O455       Mg497   2.142       .  S
O455       Mg480   2.132       .  S
O455        C476   1.238       .  S
O456        C487   1.272   1_545  A
O456       Mg480   2.298       .  S
C457        O459   1.275   1_545  A
C457        O471   1.274       .  A
C457       C2553   1.496       .  S
O458        C486   1.272       .  A
O458       Mg460   2.305       .  S
O459       Mg491   2.286       .  S
Mg460       O466   2.144       .  S
Mg460       O474   2.274       .  S
Mg460       O462   2.331       .  S
C461        O499   1.269       .  A
C461        O467   1.276       .  A
C461       C1493   1.470       .  S
O462        C469   1.278       .  A
H463        C476   1.081       .  S
C464        O478   1.238       .  S
C464        O479   1.272   1_545  A
C464        H489   1.081       .  S
O465        C488   1.272   1_565  A
O466       Mg480   2.152   1_565  S
O467       Mg497   2.318       .  S
C468        O481   1.272       .  A
C468        O473   1.279       .  A
C468        C973   1.484       .  S
C469        O496   1.272   1_565  A
C469       C1053   1.497       .  S
Mg470       O477   2.126       .  S
Mg470       O478   2.139       .  S
Mg470       O471   2.313       .  S
Mg470       O472   2.297       .  S
Mg470       O499   2.238       .  S
O472        C476   1.272       .  A
O473       Mg480   2.339       .  S
O474        C493   1.274       .  A
O475        C495   1.275       .  A
O475       Mg491   2.306       .  S
O477       Mg491   2.131   1_545  S
O477        C488   1.238       .  S
O478       Mg497   2.125       .  S
O479       Mg491   2.299       .  S
Mg480       O496   2.250       .  S
O481       Mg497   2.248       .  S
H482        C487   1.081       .  S
O483       Mg491   2.154       .  S
O483        C486   1.237       .  S
H484        C486   1.081       .  S
H485        C488   1.081       .  S
O490       Mg497   2.300       .  S
C493        O498   1.278       .  A
C493       C2182   1.480       .  S
O494        C495   1.274       .  A
C495       C2362   1.473       .  S
C500        C982   1.618       .  S
C500       C1013   1.604       .  S
C500       C1133   1.616       .  S
C500       C1453   1.622       .  S
O501       Mg503   2.155   1_556  S
O501       Mg509   2.155   1_545  S
O501        C536   1.238       .  S
C502        O515   1.239       .  S
C502        O539   1.272   1_556  A
C502        H541   1.081       .  S
Mg503       O532   2.150       .  S
Mg503       O547   2.331   1_554  S
Mg503       O543   2.303       .  S
Mg503       O514   2.298       .  S
O504       Mg546   2.145   1_556  S
O504       Mg529   2.144       .  S
O504        C525   1.239       .  S
O505        C536   1.272       .  A
O505       Mg529   2.304   1_545  S
C506        O508   1.274       .  A
C506        O520   1.278       .  A
C506       C1042   1.483       .  S
O507        C535   1.272       .  A
O507       Mg509   2.302   1_544  S
O508       Mg540   2.280       .  S
Mg509       O515   2.131       .  S
Mg509       O523   2.246   1_565  S
Mg509       O511   2.328       .  S
C510        O548   1.273       .  A
C510        O516   1.275       .  A
C510       C1553   1.481       .  S
O511        C518   1.277       .  A
H512        C525   1.081       .  S
C513        O527   1.238       .  S
C513        O528   1.271       .  A
C513        H538   1.081       .  S
O514        C537   1.272       .  A
O515       Mg529   2.143       .  S
O516       Mg546   2.304       .  S
C517        O530   1.270       .  A
C517        O522   1.277       .  A
C517        C933   1.473       .  S
C518        O545   1.275       .  A
C518       C2542   1.486       .  S
Mg519       O526   2.128       .  S
Mg519       O527   2.146   1_545  S
Mg519       O520   2.324       .  S
Mg519       O521   2.304   1_544  S
Mg519       O548   2.269   1_545  S
O521        C525   1.273       .  A
O522       Mg529   2.323       .  S
O523        C542   1.271       .  A
O524        C544   1.276       .  A
O524       Mg540   2.305       .  S
O526       Mg540   2.142       .  S
O526        C537   1.238       .  S
O527       Mg546   2.129       .  S
O528       Mg540   2.294   1_565  S
Mg529       O545   2.289       .  S
O530       Mg546   2.251   1_556  S
H531        C536   1.081       .  S
O532       Mg540   2.145       .  S
O532        C535   1.238       .  S
H533        C535   1.081       .  S
H534        C537   1.081       .  S
O539       Mg546   2.301       .  S
C542        O547   1.280       .  A
C542       C2013   1.484       .  S
O543        C544   1.278       .  A
C544        C953   1.492       .  S
C549        C913   1.607       .  S
C549        C962   1.614       .  S
C549       C1162   1.614       .  S
C549       C1362   1.612       .  S
O550       Mg552   2.135       .  S
O550       Mg558   2.154   1_554  S
O550        C585   1.238       .  S
C551        O564   1.237       .  S
C551        O588   1.271       .  A
C551        H590   1.081       .  S
Mg552       O581   2.144       .  S
Mg552       O596   2.318       .  S
Mg552       O592   2.272       .  S
Mg552       O563   2.302       .  S
O553       Mg595   2.148       .  S
O553       Mg578   2.143       .  S
O553        C574   1.238       .  S
O554        C585   1.271       .  A
O554       Mg578   2.295   1_554  S
C555        O557   1.269       .  A
C555        O569   1.274       .  A
C555        C922   1.480       .  S
O556        C584   1.269   1_556  A
O556       Mg558   2.289       .  S
O557       Mg589   2.245       .  S
Mg558       O564   2.131       .  S
Mg558       O572   2.244       .  S
Mg558       O560   2.308       .  S
C559        O597   1.270   1_556  A
C559        O565   1.281       .  A
C559       C1102   1.482       .  S
O560        C567   1.275       .  A
H561        C574   1.081   1_554  S
C562        O576   1.239       .  S
C562        O577   1.274       .  A
C562        H587   1.081       .  S
O563        C586   1.272       .  A
O564       Mg578   2.143       .  S
O565       Mg595   2.348       .  S
C566        O579   1.276       .  A
C566        O571   1.273       .  A
C566       C1962   1.475       .  S
C567        O594   1.271       .  A
C567        C902   1.478       .  S
Mg568       O575   2.136       .  S
Mg568       O576   2.138   1_554  S
Mg568       O569   2.312       .  S
Mg568       O570   2.303       .  S
Mg568       O597   2.244       .  S
O570        C574   1.272   1_554  A
O571       Mg578   2.294       .  S
O572        C591   1.272   1_556  A
O573        C593   1.274       .  A
O573       Mg589   2.307       .  S
O575       Mg589   2.133       .  S
O575        C586   1.237       .  S
O576       Mg595   2.145       .  S
O577       Mg589   2.310   1_556  S
Mg578       O594   2.259       .  S
O579       Mg595   2.290       .  S
H580        C585   1.081       .  S
O581       Mg589   2.122       .  S
O581        C584   1.236       .  S
H582        C584   1.081       .  S
H583        C586   1.081       .  S
O588       Mg595   2.300       .  S
C591        O596   1.277       .  A
C591       C2213   1.481       .  S
O592        C593   1.273       .  A
C593       C1802   1.474       .  S
O598       Mg600   2.137       .  S
O598       Mg606   2.150   1_655  S
O598        C633   1.238       .  S
C599        O612   1.238       .  S
C599        O636   1.271       .  A
C599        H638   1.081       .  S
Mg600       O629   2.146       .  S
Mg600       O644   2.305       .  S
Mg600       O640   2.275       .  S
Mg600       O611   2.300       .  S
O601       Mg643   2.142       .  S
O601       Mg626   2.130       .  S
O601        C622   1.239       .  S
O602        C633   1.272       .  A
O602       Mg626   2.303   1_655  S
C603        O605   1.273       .  A
C603        O617   1.277       .  A
C603       C1222   1.481       .  S
O604        C632   1.271       .  A
O604       Mg606   2.295   1_655  S
O605       Mg637   2.265       .  S
Mg606       O612   2.137       .  S
Mg606       O620   2.267   1_455  S
Mg606       O608   2.306       .  S
C607        O645   1.274       .  A
C607        O613   1.274       .  A
C607        C882   1.491       .  S
O608        C615   1.276       .  A
H609        C622   1.081       .  S
C610        O624   1.238       .  S
C610        O625   1.271       .  A
C610        H635   1.081       .  S
O611        C634   1.272       .  A
O612       Mg626   2.145       .  S
O613       Mg643   2.302       .  S
C614        O627   1.271       .  A
C614        O619   1.279       .  A
C614       C1753   1.489       .  S
C615        O642   1.273       .  A
C615        C862   1.476       .  S
Mg616       O623   2.145   1_455  S
Mg616       O624   2.139       .  S
Mg616       O617   2.308   1_455  S
Mg616       O618   2.303       .  S
Mg616       O645   2.286       .  S
O618        C622   1.273       .  A
O619       Mg626   2.334       .  S
O620        C639   1.272       .  A
O621        C641   1.278       .  A
O621       Mg637   2.324       .  S
O623       Mg637   2.152       .  S
O623        C634   1.238       .  S
O624       Mg643   2.133       .  S
O625       Mg637   2.299   1_455  S
Mg626       O642   2.265       .  S
O627       Mg643   2.259       .  S
H628        C633   1.081       .  S
O629       Mg637   2.128       .  S
O629        C632   1.238       .  S
H630        C632   1.081       .  S
H631        C634   1.081       .  S
O636       Mg643   2.298       .  S
C639        O644   1.276       .  A
C639       C2402   1.485       .  S
O640        C641   1.274       .  A
C641       C1902   1.487       .  S
O646       Mg648   2.135       .  S
O646       Mg654   2.145       .  S
O646        C681   1.238       .  S
C647        O660   1.238       .  S
C647        O684   1.271   1_554  A
C647        H686   1.081       .  S
Mg648       O677   2.143   1_554  S
Mg648       O692   2.305       .  S
Mg648       O688   2.263   1_554  S
Mg648       O659   2.306   1_455  S
O649       Mg691   2.139   1_554  S
O649       Mg674   2.131       .  S
O649        C670   1.239       .  S
O650        C681   1.272   1_655  A
O650       Mg674   2.300       .  S
C651        O653   1.272       .  A
C651        O665   1.279       .  A
C651       C2422   1.481       .  S
O652        C680   1.272       .  A
O652       Mg654   2.301   1_556  S
O653       Mg685   2.258       .  S
Mg654       O660   2.119       .  S
Mg654       O668   2.248       .  S
Mg654       O656   2.306       .  S
C655        O693   1.275       .  A
C655        O661   1.274       .  A
C655       C2202   1.496       .  S
O656        C663   1.275       .  A
H657        C670   1.081       .  S
C658        O672   1.237       .  S
C658        O673   1.271       .  A
C658        H683   1.081       .  S
O659        C682   1.273   1_554  A
O660       Mg674   2.142   1_455  S
O661       Mg691   2.297       .  S
C662        O675   1.274       .  A
C662        O667   1.277       .  A
C662       C1682   1.488       .  S
C663        O690   1.273       .  A
C663        C833   1.483       .  S
Mg664       O671   2.152       .  S
Mg664       O672   2.136       .  S
Mg664       O665   2.328       .  S
Mg664       O666   2.306   1_556  S
Mg664       O693   2.294       .  S
O666        C670   1.274       .  A
O667       Mg674   2.316       .  S
O668        C687   1.270       .  A
O669        C689   1.278   1_655  A
O669       Mg685   2.322       .  S
O671       Mg685   2.150       .  S
O671        C682   1.239       .  S
O672       Mg691   2.140       .  S
O673       Mg685   2.302       .  S
Mg674       O690   2.274   1_655  S
O675       Mg691   2.285   1_554  S
H676        C681   1.081       .  S
O677       Mg685   2.129   1_455  S
O677        C680   1.238       .  S
H678        C680   1.081       .  S
H679        C682   1.081       .  S
O684       Mg691   2.292   1_455  S
C687        O692   1.275       .  A
C687       C1082   1.474       .  S
O688        C689   1.271       .  A
C689       C1382   1.485       .  S
C694        C842   1.612       .  S
C694        C873   1.616       .  S
C694       C1122   1.610       .  S
C694       C1642   1.607       .  S
O695       Mg697   2.137       .  S
O695       Mg703   2.155       .  S
O695        C730   1.237       .  S
C696        O709   1.237       .  S
C696        O733   1.271       .  A
C696        H735   1.081       .  S
Mg697       O726   2.148       .  S
Mg697       O741   2.291       .  S
Mg697       O737   2.275       .  S
Mg697       O708   2.299       .  S
O698       Mg740   2.146       .  S
O698       Mg723   2.151       .  S
O698        C719   1.238       .  S
O699        C730   1.271       .  A
O699       Mg723   2.296       .  S
C700        O702   1.273       .  A
C700        O714   1.277       .  A
C700       C1482   1.481       .  S
O701        C729   1.272       .  A
O701       Mg703   2.298       .  S
O702       Mg734   2.275       .  S
Mg703       O709   2.140       .  S
Mg703       O717   2.279       .  S
Mg703       O705   2.307       .  S
C704        O742   1.272       .  A
C704        O710   1.276       .  A
C704       C1982   1.481       .  S
O705        C712   1.277       .  A
H706        C719   1.081       .  S
C707        O721   1.239       .  S
C707        O722   1.273       .  A
C707        H732   1.081       .  S
O708        C731   1.271       .  A
O709       Mg723   2.150       .  S
O710       Mg740   2.304       .  S
C711        O724   1.274       .  A
C711        O716   1.279       .  A
C711       C1742   1.496       .  S
C712        O739   1.276       .  A
C712       C2162   1.488       .  S
Mg713       O720   2.136       .  S
Mg713       O721   2.158       .  S
Mg713       O714   2.321       .  S
Mg713       O715   2.306       .  S
Mg713       O742   2.270       .  S
O715        C719   1.272       .  A
O716       Mg723   2.328       .  S
O717        C736   1.273       .  A
O718        C738   1.279       .  A
O718       Mg734   2.330       .  S
O720       Mg734   2.145       .  S
O720        C731   1.237       .  S
O721       Mg740   2.159       .  S
O722       Mg734   2.309       .  S
Mg723       O739   2.298       .  S
O724       Mg740   2.284       .  S
H725        C730   1.081       .  S
O726       Mg734   2.135       .  S
O726        C729   1.239       .  S
H727        C729   1.081       .  S
H728        C731   1.081       .  S
O733       Mg740   2.301       .  S
C736        O741   1.274       .  A
C736       C1813   1.483       .  S
O737        C738   1.273       .  A
C738       C1882   1.492       .  S
C743        C813   1.621       .  S
C743        C853   1.607       .  S
C743       C1002   1.614       .  S
C743       C2702   1.618   1_455  S
O744       Mg746   2.139       .  S
O744       Mg752   2.148       .  S
O744        C779   1.239       .  S
C745        O758   1.239       .  S
C745        O782   1.273       .  A
C745        H784   1.081       .  S
Mg746       O775   2.145       .  S
Mg746       O790   2.333       .  S
Mg746       O786   2.285       .  S
Mg746       O757   2.306       .  S
O747       Mg789   2.130       .  S
O747       Mg772   2.130       .  S
O747        C768   1.237       .  S
O748        C779   1.272       .  A
O748       Mg772   2.301       .  S
C749        O751   1.272       .  A
C749        O763   1.279       .  A
C749        C822   1.486       .  S
O750        C778   1.271       .  A
O750       Mg752   2.301       .  S
O751       Mg783   2.270       .  S
Mg752       O758   2.124       .  S
Mg752       O766   2.254       .  S
Mg752       O754   2.315       .  S
C753        O791   1.274       .  A
C753        O759   1.275       .  A
C753       C1713   1.482       .  S
O754        C761   1.276       .  A
H755        C768   1.081       .  S
C756        O770   1.238       .  S
C756        O771   1.271       .  A
C756        H781   1.081       .  S
O757        C780   1.273       .  A
O758       Mg772   2.136       .  S
O759       Mg789   2.298       .  S
C760        O773   1.272       .  A
C760        O765   1.273       .  A
C760       C1922   1.491       .  S
C761        O788   1.270       .  A
C761        C802   1.479       .  S
Mg762       O769   2.135       .  S
Mg762       O770   2.149       .  S
Mg762       O763   2.333       .  S
Mg762       O764   2.302       .  S
Mg762       O791   2.272       .  S
O764        C768   1.271       .  A
O765       Mg772   2.303       .  S
O766        C785   1.271       .  A
O767        C787   1.274       .  A
O767       Mg783   2.293       .  S
O769       Mg783   2.142       .  S
O769        C780   1.239       .  S
O770       Mg789   2.138       .  S
O771       Mg783   2.297       .  S
Mg772       O788   2.259       .  S
O773       Mg789   2.272       .  S
H774        C779   1.081       .  S
O775       Mg783   2.142       .  S
O775        C778   1.237       .  S
H776        C778   1.081       .  S
H777        C780   1.081       .  S
O782       Mg789   2.304       .  S
C785        O790   1.280       .  A
C785       C1542   1.483       .  S
O786        C787   1.275       .  A
C787       C2062   1.486       .  S
C792        C793   1.611       .  S
C792        C893   1.615       .  S
C792        C942   1.612       .  S
C792       C2642   1.610       .  S
C793        C794   1.455       .  A
C793        C798   1.460       .  A
C794        C795   1.413       .  A
C794       Br806   1.931       .  S
C795        C796   1.393       .  A
C795       Br810   1.938       .  S
C796        C799   1.487       .  S
C796        C797   1.393       .  A
C797        C798   1.414       .  A
C797       Br805   1.946       .  S
C798       Br809   1.935       .  S
C799        C800   1.408       .  A
C799        C804   1.410       .  A
C800        C801   1.410       .  A
C800       Br811   1.929       .  S
C801        C802   1.414       .  A
C801       Br807   1.930       .  S
C802        C803   1.409       .  A
C803        C804   1.406       .  A
C803       Br812   1.930       .  S
C804       Br808   1.929       .  S
C813        C814   1.454       .  A
C813        C818   1.464       .  A
C814        C815   1.419       .  A
C814       Br826   1.931       .  S
C815        C816   1.396       .  A
C815       Br830   1.936       .  S
C816        C819   1.495       .  S
C816        C817   1.393       .  A
C817        C818   1.414       .  A
C817       Br825   1.949       .  S
C818       Br829   1.940       .  S
C819        C820   1.412       .  A
C819        C824   1.409       .  A
C820        C821   1.411       .  A
C820       Br831   1.929       .  S
C821        C822   1.411       .  A
C821       Br827   1.930       .  S
C822        C823   1.414       .  A
C823        C824   1.411       .  A
C823       Br832   1.930       .  S
C824       Br828   1.929       .  S
C833        C834   1.414       .  A
C833        C838   1.411       .  A
C834        C835   1.409       .  A
C834       Br846   1.931       .  S
C835        C836   1.409       .  A
C835       Br850   1.931       .  S
C836        C839   1.493       .  S
C836        C837   1.411       .  A
C837        C838   1.409       .  A
C837       Br845   1.926       .  S
C838       Br849   1.932       .  S
C839        C840   1.398       .  A
C839        C844   1.394       .  A
C840        C841   1.421       .  A
C840       Br851   1.940       .  S
C841        C842   1.461       .  A
C841       Br847   1.945       .  S
C842        C843   1.456       .  A
C843        C844   1.411       .  A
C843       Br852   1.930       .  S
C844       Br848   1.945       .  S
C853        C854   1.455       .  A
C853        C858   1.460       .  A
C854        C855   1.409       .  A
C854       Br866   1.931       .  S
C855        C856   1.393       .  A
C855       Br870   1.943   1_455  S
C856        C859   1.490       .  S
C856        C857   1.398       .  A
C857        C858   1.421       .  A
C857       Br865   1.939       .  S
C858       Br869   1.944       .  S
C859        C860   1.412       .  A
C859        C864   1.409   1_455  A
C860        C861   1.406       .  A
C860       Br871   1.923       .  S
C861        C862   1.408       .  A
C861       Br867   1.932       .  S
C862        C863   1.412   1_455  A
C863        C864   1.408       .  A
C863       Br872   1.930       .  S
C864       Br868   1.930       .  S
C873        C874   1.461       .  A
C873        C878   1.455       .  A
C874        C875   1.411       .  A
C874       Br886   1.940       .  S
C875        C876   1.393       .  A
C875       Br890   1.944       .  S
C876        C879   1.491       .  S
C876        C877   1.396       .  A
C877        C878   1.416       .  A
C877       Br885   1.936       .  S
C878       Br889   1.931       .  S
C879        C880   1.407       .  A
C879        C884   1.410       .  A
C880        C881   1.410       .  A
C880       Br891   1.930       .  S
C881        C882   1.418       .  A
C881       Br887   1.932       .  S
C882        C883   1.417       .  A
C883        C884   1.409       .  A
C883       Br892   1.933       .  S
C884       Br888   1.932       .  S
C893        C894   1.464       .  A
C893        C898   1.455       .  A
C894        C895   1.417       .  A
C894       Br906   1.941       .  S
C895        C896   1.393       .  A
C895       Br910   1.947       .  S
C896        C899   1.488       .  S
C896        C897   1.393       .  A
C897        C898   1.412       .  A
C897       Br905   1.940       .  S
C898       Br909   1.934       .  S
C899        C900   1.409       .  A
C899        C904   1.409       .  A
C900        C901   1.407       .  A
C900       Br911   1.931       .  S
C901        C902   1.412       .  A
C901       Br907   1.932       .  S
C902        C903   1.412       .  A
C903        C904   1.409       .  A
C903       Br912   1.930       .  S
C904       Br908   1.929       .  S
C913        C914   1.456       .  A
C913        C918   1.460       .  A
C914        C915   1.409       .  A
C914       Br926   1.932       .  S
C915        C916   1.393       .  A
C915       Br930   1.944       .  S
C916        C919   1.487       .  S
C916        C917   1.396       .  A
C917        C918   1.418       .  A
C917       Br925   1.940       .  S
C918       Br929   1.946       .  S
C919        C920   1.410       .  A
C919        C924   1.407       .  A
C920        C921   1.407       .  A
C920       Br931   1.925       .  S
C921        C922   1.412       .  A
C921       Br927   1.933       .  S
C922        C923   1.416       .  A
C923        C924   1.406       .  A
C923       Br932   1.933       .  S
C924       Br928   1.931       .  S
C933        C934   1.410       .  A
C933        C938   1.407       .  A
C934        C935   1.408       .  A
C934       Br946   1.928       .  S
C935        C936   1.410       .  A
C935       Br950   1.929       .  S
C936        C939   1.488       .  S
C936        C937   1.411       .  A
C937        C938   1.406       .  A
C937       Br945   1.924       .  S
C938       Br949   1.931       .  S
C939        C940   1.394       .  A
C939        C944   1.395       .  A
C940        C941   1.410       .  A
C940       Br951   1.944       .  S
C941        C942   1.455       .  A
C941       Br947   1.931       .  S
C942        C943   1.461       .  A
C943        C944   1.417       .  A
C943       Br952   1.949       .  S
C944       Br948   1.937       .  S
C953        C954   1.416       .  A
C953        C958   1.417       .  A
C954        C955   1.408       .  A
C954       Br966   1.933       .  S
C955        C956   1.410       .  A
C955       Br970   1.932       .  S
C956        C959   1.494       .  S
C956        C957   1.409       .  A
C957        C958   1.413       .  A
C957       Br965   1.929       .  S
C958       Br969   1.930       .  S
C959        C960   1.397       .  A
C959        C964   1.393       .  A
C960        C961   1.418       .  A
C960       Br971   1.936       .  S
C961        C962   1.455       .  A
C961       Br967   1.931       .  S
C962        C963   1.458       .  A
C963        C964   1.409       .  A
C963       Br972   1.940       .  S
C964       Br968   1.942       .  S
C973        C974   1.415       .  A
C973        C978   1.411       .  A
C974        C975   1.413       .  A
C974       Br986   1.929       .  S
C975        C976   1.409       .  A
C975       Br990   1.928       .  S
C976        C979   1.494       .  S
C976        C977   1.411       .  A
C977        C978   1.406       .  A
C977       Br985   1.925       .  S
C978       Br989   1.934       .  S
C979        C980   1.391       .  A
C979        C984   1.396       .  A
C980        C981   1.413       .  A
C980       Br991   1.946       .  S
C981        C982   1.460       .  A
C981       Br987   1.931       .  S
C982        C983   1.455       .  A
C983        C984   1.418       .  A
C983       Br992   1.933       .  S
C984       Br988   1.935       .  S
C993        C994   1.408       .  A
C993        C998   1.411       .  A
C994        C995   1.405       .  A
C994      Br1006   1.932       .  S
C995        C996   1.412       .  A
C995      Br1010   1.930       .  S
C996        C999   1.487       .  S
C996        C997   1.409       .  A
C997        C998   1.409       .  A
C997      Br1005   1.929   1_655  S
C998      Br1009   1.929       .  S
C999       C1000   1.396   1_655  A
C999       C1004   1.390       .  A
C1000      C1001   1.415       .  A
C1000     Br1011   1.937       .  S
C1001      C1002   1.455       .  A
C1001     Br1007   1.932       .  S
C1002      C1003   1.459   1_455  A
C1003      C1004   1.406       .  A
C1003     Br1012   1.939       .  S
C1004     Br1008   1.942       .  S
C1013      C1014   1.457       .  A
C1013      C1018   1.454       .  A
C1014      C1015   1.419       .  A
C1014     Br1026   1.946       .  S
C1015      C1016   1.399       .  A
C1015     Br1030   1.938       .  S
C1016      C1019   1.490       .  S
C1016      C1017   1.394       .  A
C1017      C1018   1.408       .  A
C1017     Br1025   1.942       .  S
C1018     Br1029   1.934       .  S
C1019      C1020   1.407       .  A
C1019      C1024   1.412       .  A
C1020      C1021   1.406       .  A
C1020     Br1031   1.932       .  S
C1021      C1022   1.415       .  A
C1021     Br1027   1.933       .  S
C1022      C1023   1.413       .  A
C1023      C1024   1.411       .  A
C1023     Br1032   1.931       .  S
C1024     Br1028   1.927       .  S
C1033      C1034   1.453   1_565  A
C1033      C1038   1.463       .  A
C1034      C1035   1.418       .  A
C1034     Br1046   1.931       .  S
C1035      C1036   1.396       .  A
C1035     Br1050   1.937       .  S
C1036      C1039   1.494       .  S
C1036      C1037   1.393   1_545  A
C1037      C1038   1.413       .  A
C1037     Br1045   1.947       .  S
C1038     Br1049   1.942       .  S
C1039      C1040   1.412       .  A
C1039      C1044   1.410       .  A
C1040      C1041   1.410       .  A
C1040     Br1051   1.930       .  S
C1041      C1042   1.409       .  A
C1041     Br1047   1.929       .  S
C1042      C1043   1.413       .  A
C1043      C1044   1.411       .  A
C1043     Br1052   1.930   1_545  S
C1044     Br1048   1.929   1_545  S
C1053      C1054   1.416       .  A
C1053      C1058   1.419       .  A
C1054      C1055   1.408       .  A
C1054     Br1066   1.941   1_565  S
C1055      C1056   1.417       .  A
C1055     Br1070   1.929   1_565  S
C1056      C1059   1.504       .  S
C1056      C1057   1.412       .  A
C1057      C1058   1.414       .  A
C1057     Br1065   1.933       .  S
C1058     Br1069   1.931       .  S
C1059      C1060   1.397       .  A
C1059      C1064   1.406       .  A
C1060      C1061   1.411       .  A
C1060     Br1071   1.937       .  S
C1061      C1062   1.454       .  A
C1061     Br1067   1.929       .  S
C1062      C1063   1.453       .  A
C1063      C1064   1.418       .  A
C1063     Br1072   1.941       .  S
C1064     Br1068   1.933   1_565  S
C1073      C1074   1.455   1_554  A
C1073      C1078   1.461       .  A
C1074      C1075   1.408   1_556  A
C1074     Br1086   1.929       .  S
C1075      C1076   1.393       .  A
C1075     Br1090   1.948   1_554  S
C1076      C1079   1.486       .  S
C1076      C1077   1.397       .  A
C1077      C1078   1.419       .  A
C1077     Br1085   1.939       .  S
C1078     Br1089   1.947       .  S
C1079      C1080   1.408   1_554  A
C1079      C1084   1.411       .  A
C1080      C1081   1.405       .  A
C1080     Br1091   1.931       .  S
C1081      C1082   1.412   1_556  A
C1081     Br1087   1.930       .  S
C1082      C1083   1.409       .  A
C1083      C1084   1.407       .  A
C1083     Br1092   1.932       .  S
C1084     Br1088   1.925       .  S
C1093      C1094   1.460       .  A
C1093      C1098   1.457   1_556  A
C1094      C1095   1.412       .  A
C1094     Br1106   1.933       .  S
C1095      C1096   1.392       .  A
C1095     Br1110   1.945       .  S
C1096      C1099   1.492       .  S
C1096      C1097   1.395   1_556  A
C1097      C1098   1.417       .  A
C1097     Br1105   1.938       .  S
C1098     Br1109   1.930       .  S
C1099      C1100   1.410       .  A
C1099      C1104   1.410       .  A
C1100      C1101   1.408       .  A
C1100     Br1111   1.931   1_556  S
C1101      C1102   1.412       .  A
C1101     Br1107   1.932       .  S
C1102      C1103   1.412       .  A
C1103      C1104   1.411       .  A
C1103     Br1112   1.929       .  S
C1104     Br1108   1.928       .  S
C1113      C1114   1.415       .  A
C1113      C1118   1.415       .  A
C1114      C1115   1.410       .  A
C1114     Br1126   1.930       .  S
C1115      C1116   1.410       .  A
C1115     Br1130   1.931       .  S
C1116      C1119   1.490       .  S
C1116      C1117   1.409       .  A
C1117      C1118   1.404       .  A
C1117     Br1125   1.930       .  S
C1118     Br1129   1.936       .  S
C1119      C1120   1.396       .  A
C1119      C1124   1.396       .  A
C1120      C1121   1.419       .  A
C1120     Br1131   1.945       .  S
C1121      C1122   1.464       .  A
C1121     Br1127   1.949       .  S
C1122      C1123   1.454       .  A
C1123      C1124   1.412       .  A
C1123     Br1132   1.935       .  S
C1124     Br1128   1.946       .  S
C1133      C1134   1.454       .  A
C1133      C1138   1.456       .  A
C1134      C1135   1.424       .  A
C1134     Br1146   1.942       .  S
C1135      C1136   1.408       .  A
C1135     Br1150   1.933       .  S
C1136      C1139   1.509       .  S
C1136      C1137   1.396       .  A
C1137      C1138   1.411       .  A
C1137     Br1145   1.939       .  S
C1138     Br1149   1.929       .  S
C1139      C1140   1.414       .  A
C1139      C1144   1.417       .  A
C1140      C1141   1.418       .  A
C1140     Br1151   1.931       .  S
C1141      C1142   1.420       .  A
C1141     Br1147   1.931       .  S
C1142      C1143   1.416       .  A
C1143      C1144   1.408       .  A
C1143     Br1152   1.941       .  S
C1144     Br1148   1.927       .  S
C1153      C1154   1.411       .  A
C1153      C1158   1.405       .  A
C1154      C1155   1.411       .  A
C1154     Br1166   1.928       .  S
C1155      C1156   1.411       .  A
C1155     Br1170   1.929       .  S
C1156      C1159   1.493       .  S
C1156      C1157   1.413       .  A
C1157      C1158   1.406       .  A
C1157     Br1165   1.929       .  S
C1158     Br1169   1.929       .  S
C1159      C1160   1.395       .  A
C1159      C1164   1.396       .  A
C1160      C1161   1.413       .  A
C1160     Br1171   1.949       .  S
C1161      C1162   1.462       .  A
C1161     Br1167   1.943       .  S
C1162      C1163   1.454       .  A
C1163      C1164   1.417       .  A
C1163     Br1172   1.931       .  S
C1164     Br1168   1.937       .  S
C1173      C1174   1.415       .  A
C1173      C1178   1.411       .  A
C1174      C1175   1.413       .  A
C1174     Br1186   1.929       .  S
C1175      C1176   1.410       .  A
C1175     Br1190   1.928       .  S
C1176      C1179   1.495       .  S
C1176      C1177   1.411       .  A
C1177      C1178   1.407       .  A
C1177     Br1185   1.926       .  S
C1178     Br1189   1.934       .  S
C1179      C1180   1.391       .  A
C1179      C1184   1.397       .  A
C1180      C1181   1.412       .  A
C1180     Br1191   1.945       .  S
C1181      C1182   1.459       .  A
C1181     Br1187   1.927       .  S
C1182      C1183   1.454       .  A
C1183      C1184   1.419       .  A
C1183     Br1192   1.927       .  S
C1184     Br1188   1.935       .  S
C1193      C1194   1.406       .  A
C1193      C1198   1.411       .  A
C1194      C1195   1.407       .  A
C1194     Br1206   1.928       .  S
C1195      C1196   1.412       .  A
C1195     Br1210   1.929       .  S
C1196      C1199   1.489       .  S
C1196      C1197   1.409       .  A
C1197      C1198   1.409       .  A
C1197     Br1205   1.929       .  S
C1198     Br1209   1.928       .  S
C1199      C1200   1.393       .  A
C1199      C1204   1.392       .  A
C1200      C1201   1.415       .  A
C1200     Br1211   1.953       .  S
C1201      C1202   1.466       .  A
C1201     Br1207   1.944       .  S
C1202      C1203   1.454       .  A
C1203      C1204   1.416       .  A
C1203     Br1212   1.932   1_554  S
C1204     Br1208   1.937       .  S
C1213      C1214   1.463       .  A
C1213      C1218   1.456       .  A
C1214      C1215   1.419   1_455  A
C1214     Br1226   1.951       .  S
C1215      C1216   1.396       .  A
C1215     Br1230   1.941       .  S
C1216      C1219   1.491       .  S
C1216      C1217   1.395   1_655  A
C1217      C1218   1.414       .  A
C1217     Br1225   1.945       .  S
C1218     Br1229   1.931       .  S
C1219      C1220   1.411       .  A
C1219      C1224   1.408   1_655  A
C1220      C1221   1.409       .  A
C1220     Br1231   1.925       .  S
C1221      C1222   1.412       .  A
C1221     Br1227   1.933       .  S
C1222      C1223   1.414   1_655  A
C1223      C1224   1.407       .  A
C1223     Br1232   1.932       .  S
C1224     Br1228   1.931       .  S
C1233      C1234   1.464       .  A
C1233      C1238   1.456   1_455  A
C1234      C1235   1.414       .  A
C1234     Br1246   1.947       .  S
C1235      C1236   1.393       .  A
C1235     Br1250   1.946       .  S
C1236      C1239   1.488       .  S
C1236      C1237   1.393   1_455  A
C1237      C1238   1.413       .  A
C1237     Br1245   1.939       .  S
C1238     Br1249   1.934       .  S
C1239      C1240   1.407   1_455  A
C1239      C1244   1.407       .  A
C1240      C1241   1.406       .  A
C1240     Br1251   1.933       .  S
C1241      C1242   1.417   1_655  A
C1241     Br1247   1.931       .  S
C1242      C1243   1.419       .  A
C1243      C1244   1.410       .  A
C1243     Br1252   1.932       .  S
C1244     Br1248   1.930       .  S
C1253      C1254   1.463       .  A
C1253      C1258   1.455       .  A
C1254      C1255   1.423       .  A
C1254     Br1266   1.949   1_455  S
C1255      C1256   1.399       .  A
C1255     Br1270   1.943       .  S
C1256      C1259   1.497       .  S
C1256      C1257   1.396       .  A
C1257      C1258   1.414       .  A
C1257     Br1265   1.947       .  S
C1258     Br1269   1.929       .  S
C1259      C1260   1.410       .  A
C1259      C1264   1.412       .  A
C1260      C1261   1.408       .  A
C1260     Br1271   1.931       .  S
C1261      C1262   1.415       .  A
C1261     Br1267   1.933       .  S
C1262      C1263   1.416       .  A
C1263      C1264   1.412       .  A
C1263     Br1272   1.931       .  S
C1264     Br1268   1.931       .  S
C1273      C1274   1.453       .  A
C1273      C1278   1.465   1_565  A
C1274      C1275   1.417       .  A
C1274     Br1286   1.935       .  S
C1275      C1276   1.396       .  A
C1275     Br1290   1.935       .  S
C1276      C1279   1.490       .  S
C1276      C1277   1.392   1_565  A
C1277      C1278   1.410       .  A
C1277     Br1285   1.946       .  S
C1278     Br1289   1.950       .  S
C1279      C1280   1.407       .  A
C1279      C1284   1.411       .  A
C1280      C1281   1.409       .  A
C1280     Br1291   1.930       .  S
C1281      C1282   1.415       .  A
C1281     Br1287   1.931       .  S
C1282      C1283   1.412       .  A
C1283      C1284   1.410       .  A
C1283     Br1292   1.931       .  S
C1284     Br1288   1.930       .  S
C1293      C1294   1.455   1_565  A
C1293      C1298   1.453       .  A
C1294      C1295   1.408       .  A
C1294     Br1306   1.932       .  S
C1295      C1296   1.397       .  A
C1295     Br1310   1.939       .  S
C1296      C1299   1.503       .  S
C1296      C1297   1.406   1_545  A
C1297      C1298   1.420       .  A
C1297     Br1305   1.933       .  S
C1298     Br1309   1.940       .  S
C1299      C1300   1.414       .  A
C1299      C1304   1.415   1_545  A
C1300      C1301   1.415       .  A
C1300     Br1311   1.931       .  S
C1301      C1302   1.416       .  A
C1301     Br1307   1.927       .  S
C1302      C1303   1.413   1_545  A
C1303      C1304   1.406       .  A
C1303     Br1312   1.935       .  S
C1304     Br1308   1.929       .  S
C1313      C1314   1.415       .  A
C1313      C1318   1.414       .  A
C1314      C1315   1.408       .  A
C1314     Br1326   1.934       .  S
C1315      C1316   1.409       .  A
C1315     Br1330   1.929       .  S
C1316      C1319   1.488       .  S
C1316      C1317   1.409       .  A
C1317      C1318   1.408       .  A
C1317     Br1325   1.931       .  S
C1318     Br1329   1.931       .  S
C1319      C1320   1.399       .  A
C1319      C1324   1.394       .  A
C1320      C1321   1.420       .  A
C1320     Br1331   1.940       .  S
C1321      C1322   1.457       .  A
C1321     Br1327   1.944   1_545  S
C1322      C1323   1.454       .  A
C1323      C1324   1.408       .  A
C1323     Br1332   1.936       .  S
C1324     Br1328   1.944       .  S
C1333      C1334   1.456       .  A
C1333      C1338   1.462       .  A
C1334      C1335   1.414       .  A
C1334     Br1346   1.929       .  S
C1335      C1336   1.393       .  A
C1335     Br1350   1.937       .  S
C1336      C1339   1.489       .  S
C1336      C1337   1.392       .  A
C1337      C1338   1.413       .  A
C1337     Br1345   1.946       .  S
C1338     Br1349   1.935       .  S
C1339      C1340   1.407       .  A
C1339      C1344   1.411       .  A
C1340      C1341   1.407       .  A
C1340     Br1351   1.930       .  S
C1341      C1342   1.415       .  A
C1341     Br1347   1.932       .  S
C1342      C1343   1.411       .  A
C1343      C1344   1.410       .  A
C1343     Br1352   1.929       .  S
C1344     Br1348   1.929       .  S
C1353      C1354   1.415       .  A
C1353      C1358   1.414       .  A
C1354      C1355   1.406       .  A
C1354     Br1366   1.935       .  S
C1355      C1356   1.409       .  A
C1355     Br1370   1.927       .  S
C1356      C1359   1.489       .  S
C1356      C1357   1.409       .  A
C1357      C1358   1.408       .  A
C1357     Br1365   1.931       .  S
C1358     Br1369   1.932       .  S
C1359      C1360   1.392       .  A
C1359      C1364   1.397       .  A
C1360      C1361   1.411       .  A
C1360     Br1371   1.944       .  S
C1361      C1362   1.457       .  A
C1361     Br1367   1.933       .  S
C1362      C1363   1.462       .  A
C1363      C1364   1.419       .  A
C1363     Br1372   1.948       .  S
C1364     Br1368   1.942       .  S
C1373      C1374   1.463       .  A
C1373      C1378   1.455       .  A
C1374      C1375   1.420       .  A
C1374     Br1386   1.951       .  S
C1375      C1376   1.397       .  A
C1375     Br1390   1.943       .  S
C1376      C1379   1.496       .  S
C1376      C1377   1.397       .  A
C1377      C1378   1.416       .  A
C1377     Br1385   1.943       .  S
C1378     Br1389   1.935       .  S
C1379      C1380   1.411   1_455  A
C1379      C1384   1.411       .  A
C1380      C1381   1.408       .  A
C1380     Br1391   1.927       .  S
C1381      C1382   1.412   1_655  A
C1381     Br1387   1.933       .  S
C1382      C1383   1.415       .  A
C1383      C1384   1.411       .  A
C1383     Br1392   1.932       .  S
C1384     Br1388   1.931       .  S
C1393      C1394   1.460       .  A
C1393      C1398   1.454   1_455  A
C1394      C1395   1.411       .  A
C1394     Br1406   1.942       .  S
C1395      C1396   1.394   1_455  A
C1395     Br1410   1.943       .  S
C1396      C1399   1.489       .  S
C1396      C1397   1.395       .  A
C1397      C1398   1.413       .  A
C1397     Br1405   1.935       .  S
C1398     Br1409   1.934       .  S
C1399      C1400   1.409       .  A
C1399      C1404   1.408       .  A
C1400      C1401   1.408       .  A
C1400     Br1411   1.930       .  S
C1401      C1402   1.412       .  A
C1401     Br1407   1.931       .  S
C1402      C1403   1.414       .  A
C1403      C1404   1.411       .  A
C1403     Br1412   1.930       .  S
C1404     Br1408   1.929       .  S
C1413      C1414   1.412       .  A
C1413      C1418   1.412       .  A
C1414      C1415   1.409       .  A
C1414     Br1426   1.930       .  S
C1415      C1416   1.410       .  A
C1415     Br1430   1.930       .  S
C1416      C1419   1.498       .  S
C1416      C1417   1.413       .  A
C1417      C1418   1.413       .  A
C1417     Br1425   1.926       .  S
C1418     Br1429   1.931       .  S
C1419      C1420   1.395       .  A
C1419      C1424   1.399       .  A
C1420      C1421   1.414       .  A
C1420     Br1431   1.944       .  S
C1421      C1422   1.457       .  A
C1421     Br1427   1.930       .  S
C1422      C1423   1.458       .  A
C1423      C1424   1.422       .  A
C1423     Br1432   1.945       .  S
C1424     Br1428   1.937       .  S
C1433      C1434   1.458       .  A
C1433      C1438   1.463       .  A
C1434      C1435   1.415       .  A
C1434     Br1446   1.933       .  S
C1435      C1436   1.394       .  A
C1435     Br1450   1.943       .  S
C1436      C1439   1.496       .  S
C1436      C1437   1.398       .  A
C1437      C1438   1.422       .  A
C1437     Br1445   1.942       .  S
C1438     Br1449   1.950       .  S
C1439      C1440   1.411       .  A
C1439      C1444   1.411       .  A
C1440      C1441   1.412       .  A
C1440     Br1451   1.930       .  S
C1441      C1442   1.415       .  A
C1441     Br1447   1.932       .  S
C1442      C1443   1.412       .  A
C1443      C1444   1.407       .  A
C1443     Br1452   1.934       .  S
C1444     Br1448   1.924       .  S
C1453      C1454   1.453       .  A
C1453      C1458   1.466       .  A
C1454      C1455   1.419       .  A
C1454     Br1466   1.931       .  S
C1455      C1456   1.397       .  A
C1455     Br1470   1.934       .  S
C1456      C1459   1.499       .  S
C1456      C1457   1.394       .  A
C1457      C1458   1.415       .  A
C1457     Br1465   1.947       .  S
C1458     Br1469   1.944       .  S
C1459      C1460   1.412       .  A
C1459      C1464   1.407       .  A
C1460      C1461   1.415       .  A
C1460     Br1471   1.929       .  S
C1461      C1462   1.414       .  A
C1461     Br1467   1.929       .  S
C1462      C1463   1.418       .  A
C1463      C1464   1.412       .  A
C1463     Br1472   1.931       .  S
C1464     Br1468   1.930       .  S
C1473      C1474   1.444       .  A
C1473      C1478   1.425       .  A
C1474      C1475   1.411       .  A
C1474     Br1486   1.930       .  S
C1475      C1476   1.400       .  A
C1475     Br1490   1.940       .  S
C1476      C1479   1.490       .  S
C1476      C1477   1.403       .  A
C1477      C1478   1.410       .  A
C1477     Br1485   1.927       .  S
C1478     Br1489   1.935       .  S
C1479      C1480   1.413       .  A
C1479      C1484   1.409       .  A
C1480      C1481   1.408       .  A
C1480     Br1491   1.932       .  S
C1481      C1482   1.410       .  A
C1481     Br1487   1.931       .  S
C1482      C1483   1.411       .  A
C1483      C1484   1.411       .  A
C1483     Br1492   1.927       .  S
C1484     Br1488   1.928       .  S
C1493      C1494   1.406       .  A
C1493      C1498   1.411       .  A
C1494      C1495   1.405       .  A
C1494     Br1506   1.930       .  S
C1495      C1496   1.412       .  A
C1495     Br1510   1.927       .  S
C1496      C1499   1.484       .  S
C1496      C1497   1.407       .  A
C1497      C1498   1.406       .  A
C1497     Br1505   1.930       .  S
C1498     Br1509   1.929       .  S
C1499      C1500   1.393       .  A
C1499      C1504   1.394       .  A
C1500      C1501   1.414       .  A
C1500     Br1511   1.940       .  S
C1501      C1502   1.446       .  A
C1501     Br1507   1.916       .  S
C1502      C1503   1.456       .  A
C1503      C1504   1.411       .  A
C1503     Br1512   1.935       .  S
C1504     Br1508   1.945       .  S
C1513      C1514   1.450       .  A
C1513      C1518   1.438       .  A
C1514      C1515   1.423       .  A
C1514     Br1526   1.945       .  S
C1515      C1516   1.406       .  A
C1515     Br1530   1.930       .  S
C1516      C1519   1.491       .  S
C1516      C1517   1.397       .  A
C1517      C1518   1.400       .  A
C1517     Br1525   1.937       .  S
C1518     Br1529   1.931       .  S
C1519      C1520   1.412       .  A
C1519      C1524   1.412       .  A
C1520      C1521   1.408       .  A
C1520     Br1531   1.931       .  S
C1521      C1522   1.408       .  A
C1521     Br1527   1.929       .  S
C1522      C1523   1.406       .  A
C1523      C1524   1.408       .  A
C1523     Br1532   1.931       .  S
C1524     Br1528   1.920       .  S
C1533      C1534   1.461       .  A
C1533      C1538   1.456       .  A
C1534      C1535   1.422       .  A
C1534     Br1546   1.947   1_556  S
C1535      C1536   1.398       .  A
C1535     Br1550   1.942       .  S
C1536      C1539   1.495       .  S
C1536      C1537   1.395       .  A
C1537      C1538   1.413       .  A
C1537     Br1545   1.946       .  S
C1538     Br1549   1.934       .  S
C1539      C1540   1.411       .  A
C1539      C1544   1.411       .  A
C1540      C1541   1.410       .  A
C1540     Br1551   1.931       .  S
C1541      C1542   1.414       .  A
C1541     Br1547   1.931       .  S
C1542      C1543   1.412       .  A
C1543      C1544   1.408       .  A
C1543     Br1552   1.933       .  S
C1544     Br1548   1.928       .  S
C1553      C1554   1.414   1_554  A
C1553      C1558   1.412       .  A
C1554      C1555   1.407       .  A
C1554     Br1566   1.931       .  S
C1555      C1556   1.408   1_556  A
C1555     Br1570   1.932       .  S
C1556      C1559   1.489       .  S
C1556      C1557   1.411       .  A
C1557      C1558   1.409       .  A
C1557     Br1565   1.927       .  S
C1558     Br1569   1.931       .  S
C1559      C1560   1.397       .  A
C1559      C1564   1.394       .  A
C1560      C1561   1.419       .  A
C1560     Br1571   1.942       .  S
C1561      C1562   1.460       .  A
C1561     Br1567   1.944       .  S
C1562      C1563   1.455       .  A
C1563      C1564   1.411       .  A
C1563     Br1572   1.931       .  S
C1564     Br1568   1.945       .  S
C1573      C1574   1.415       .  A
C1573      C1578   1.412       .  A
C1574      C1575   1.411       .  A
C1574     Br1586   1.930       .  S
C1575      C1576   1.409       .  A
C1575     Br1590   1.930   1_556  S
C1576      C1579   1.490       .  S
C1576      C1577   1.412       .  A
C1577      C1578   1.407       .  A
C1577     Br1585   1.932       .  S
C1578     Br1589   1.933       .  S
C1579      C1580   1.393       .  A
C1579      C1584   1.399   1_556  A
C1580      C1581   1.404       .  A
C1580     Br1591   1.937       .  S
C1581      C1582   1.454       .  A
C1581     Br1587   1.938       .  S
C1582      C1583   1.454   1_556  A
C1583      C1584   1.416       .  A
C1583     Br1592   1.929       .  S
C1584     Br1588   1.935       .  S
C1593      C1594   1.453       .  A
C1593      C1598   1.460       .  A
C1594      C1595   1.415       .  A
C1594     Br1606   1.931       .  S
C1595      C1596   1.396       .  A
C1595     Br1610   1.935       .  S
C1596      C1599   1.485       .  S
C1596      C1597   1.392       .  A
C1597      C1598   1.406       .  A
C1597     Br1605   1.943       .  S
C1598     Br1609   1.945       .  S
C1599      C1600   1.410       .  A
C1599      C1604   1.407       .  A
C1600      C1601   1.405       .  A
C1600     Br1611   1.929       .  S
C1601      C1602   1.411       .  A
C1601     Br1607   1.933       .  S
C1602      C1603   1.416       .  A
C1603      C1604   1.409       .  A
C1603     Br1612   1.931       .  S
C1604     Br1608   1.930       .  S
C1613      C1614   1.413       .  A
C1613      C1618   1.410       .  A
C1614      C1615   1.410       .  A
C1614     Br1626   1.930       .  S
C1615      C1616   1.410       .  A
C1615     Br1630   1.930       .  S
C1616      C1619   1.497       .  S
C1616      C1617   1.413       .  A
C1617      C1618   1.411       .  A
C1617     Br1625   1.924       .  S
C1618     Br1629   1.931       .  S
C1619      C1620   1.400       .  A
C1619      C1624   1.396       .  A
C1620      C1621   1.422       .  A
C1620     Br1631   1.939       .  S
C1621      C1622   1.458       .  A
C1621     Br1627   1.944       .  S
C1622      C1623   1.455       .  A
C1623      C1624   1.413       .  A
C1623     Br1632   1.934       .  S
C1624     Br1628   1.942       .  S
C1633      C1634   1.414       .  A
C1633      C1638   1.411       .  A
C1634      C1635   1.409       .  A
C1634     Br1646   1.930       .  S
C1635      C1636   1.408       .  A
C1635     Br1650   1.929       .  S
C1636      C1639   1.485       .  S
C1636      C1637   1.409       .  A
C1637      C1638   1.405       .  A
C1637     Br1645   1.931       .  S
C1638     Br1649   1.932       .  S
C1639      C1640   1.393       .  A
C1639      C1644   1.394       .  A
C1640      C1641   1.409       .  A
C1640     Br1651   1.942       .  S
C1641      C1642   1.458       .  A
C1641     Br1647   1.943       .  S
C1642      C1643   1.454       .  A
C1643      C1644   1.413       .  A
C1643     Br1652   1.932       .  S
C1644     Br1648   1.938       .  S
C1653      C1654   1.458       .  A
C1653      C1658   1.455       .  A
C1654      C1655   1.408       .  A
C1654     Br1666   1.941       .  S
C1655      C1656   1.393       .  A
C1655     Br1670   1.938       .  S
C1656      C1659   1.495       .  S
C1656      C1657   1.399       .  A
C1657      C1658   1.418       .  A
C1657     Br1665   1.936       .  S
C1658     Br1669   1.932       .  S
C1659      C1660   1.409       .  A
C1659      C1664   1.413       .  A
C1660      C1661   1.411       .  A
C1660     Br1671   1.929       .  S
C1661      C1662   1.415       .  A
C1661     Br1667   1.931       .  S
C1662      C1663   1.412       .  A
C1663      C1664   1.409       .  A
C1663     Br1672   1.932       .  S
C1664     Br1668   1.931       .  S
C1673      C1674   1.456       .  A
C1673      C1678   1.461       .  A
C1674      C1675   1.413       .  A
C1674     Br1686   1.938       .  S
C1675      C1676   1.396       .  A
C1675     Br1690   1.943       .  S
C1676      C1679   1.496       .  S
C1676      C1677   1.399       .  A
C1677      C1678   1.422       .  A
C1677     Br1685   1.942       .  S
C1678     Br1689   1.945       .  S
C1679      C1680   1.410   1_655  A
C1679      C1684   1.411       .  A
C1680      C1681   1.408       .  A
C1680     Br1691   1.928       .  S
C1681      C1682   1.414   1_455  A
C1681     Br1687   1.932       .  S
C1682      C1683   1.414       .  A
C1683      C1684   1.412       .  A
C1683     Br1692   1.928       .  S
C1684     Br1688   1.930       .  S
C1693      C1694   1.459   1_455  A
C1693      C1698   1.453       .  A
C1694      C1695   1.407       .  A
C1694     Br1706   1.947       .  S
C1695      C1696   1.393   1_655  A
C1695     Br1710   1.942       .  S
C1696      C1699   1.488       .  S
C1696      C1697   1.397       .  A
C1697      C1698   1.416       .  A
C1697     Br1705   1.936       .  S
C1698     Br1709   1.933       .  S
C1699      C1700   1.408       .  A
C1699      C1704   1.410       .  A
C1700      C1701   1.411       .  A
C1700     Br1711   1.929       .  S
C1701      C1702   1.416       .  A
C1701     Br1707   1.931   1_554  S
C1702      C1703   1.413       .  A
C1703      C1704   1.406       .  A
C1703     Br1712   1.934       .  S
C1704     Br1708   1.931       .  S
C1713      C1714   1.413       .  A
C1713      C1718   1.416       .  A
C1714      C1715   1.405       .  A
C1714     Br1726   1.934       .  S
C1715      C1716   1.410       .  A
C1715     Br1730   1.931       .  S
C1716      C1719   1.486       .  S
C1716      C1717   1.407       .  A
C1717      C1718   1.409       .  A
C1717     Br1725   1.930       .  S
C1718     Br1729   1.931       .  S
C1719      C1720   1.395       .  A
C1719      C1724   1.392       .  A
C1720      C1721   1.412       .  A
C1720     Br1731   1.937       .  S
C1721      C1722   1.455       .  A
C1721     Br1727   1.935       .  S
C1722      C1723   1.458       .  A
C1723      C1724   1.409       .  A
C1723     Br1732   1.937       .  S
C1724     Br1728   1.944       .  S
C1733      C1734   1.460       .  A
C1733      C1738   1.454       .  A
C1734      C1735   1.411       .  A
C1734     Br1746   1.939       .  S
C1735      C1736   1.395       .  A
C1735     Br1750   1.944       .  S
C1736      C1739   1.493       .  S
C1736      C1737   1.396       .  A
C1737      C1738   1.414       .  A
C1737     Br1745   1.934       .  S
C1738     Br1749   1.931       .  S
C1739      C1740   1.407       .  A
C1739      C1744   1.409       .  A
C1740      C1741   1.412       .  A
C1740     Br1751   1.931       .  S
C1741      C1742   1.420       .  A
C1741     Br1747   1.931       .  S
C1742      C1743   1.417       .  A
C1743      C1744   1.410       .  A
C1743     Br1752   1.933       .  S
C1744     Br1748   1.931       .  S
C1753      C1754   1.416       .  A
C1753      C1758   1.414       .  A
C1754      C1755   1.411       .  A
C1754     Br1766   1.931       .  S
C1755      C1756   1.410       .  A
C1755     Br1770   1.931       .  S
C1756      C1759   1.498       .  S
C1756      C1757   1.411       .  A
C1757      C1758   1.410       .  A
C1757     Br1765   1.927       .  S
C1758     Br1769   1.933       .  S
C1759      C1760   1.399       .  A
C1759      C1764   1.397       .  A
C1760      C1761   1.422       .  A
C1760     Br1771   1.940       .  S
C1761      C1762   1.460       .  A
C1761     Br1767   1.947       .  S
C1762      C1763   1.456       .  A
C1763      C1764   1.414       .  A
C1763     Br1772   1.932       .  S
C1764     Br1768   1.945       .  S
C1773      C1774   1.410       .  A
C1773      C1778   1.411       .  A
C1774      C1775   1.407       .  A
C1774     Br1786   1.932       .  S
C1775      C1776   1.410       .  A
C1775     Br1790   1.926       .  S
C1776      C1779   1.485       .  S
C1776      C1777   1.408       .  A
C1777      C1778   1.405       .  A
C1777     Br1785   1.931       .  S
C1778     Br1789   1.930       .  S
C1779      C1780   1.395       .  A
C1779      C1784   1.395       .  A
C1780      C1781   1.411       .  A
C1780     Br1791   1.943       .  S
C1781      C1782   1.453       .  A
C1781     Br1787   1.933       .  S
C1782      C1783   1.461       .  A
C1783      C1784   1.415       .  A
C1783     Br1792   1.950       .  S
C1784     Br1788   1.940       .  S
C1793      C1794   1.454       .  A
C1793      C1798   1.461       .  A
C1794      C1795   1.417       .  A
C1794     Br1806   1.929       .  S
C1795      C1796   1.395       .  A
C1795     Br1810   1.937       .  S
C1796      C1799   1.488       .  S
C1796      C1797   1.392       .  A
C1797      C1798   1.409       .  A
C1797     Br1805   1.945       .  S
C1798     Br1809   1.942       .  S
C1799      C1800   1.412       .  A
C1799      C1804   1.409       .  A
C1800      C1801   1.407       .  A
C1800     Br1811   1.928       .  S
C1801      C1802   1.406       .  A
C1801     Br1807   1.930       .  S
C1802      C1803   1.411       .  A
C1803      C1804   1.409       .  A
C1803     Br1812   1.929       .  S
C1804     Br1808   1.928       .  S
C1813      C1814   1.413       .  A
C1813      C1818   1.414       .  A
C1814      C1815   1.410       .  A
C1814     Br1826   1.931       .  S
C1815      C1816   1.410       .  A
C1815     Br1830   1.930       .  S
C1816      C1819   1.493       .  S
C1816      C1817   1.410       .  A
C1817      C1818   1.407       .  A
C1817     Br1825   1.926       .  S
C1818     Br1829   1.935       .  S
C1819      C1820   1.398       .  A
C1819      C1824   1.394       .  A
C1820      C1821   1.421       .  A
C1820     Br1831   1.940       .  S
C1821      C1822   1.460       .  A
C1821     Br1827   1.945       .  S
C1822      C1823   1.456       .  A
C1823      C1824   1.412       .  A
C1823     Br1832   1.934       .  S
C1824     Br1828   1.945       .  S
C1833      C1834   1.458       .  A
C1833      C1838   1.454       .  A
C1834      C1835   1.407       .  A
C1834     Br1846   1.941       .  S
C1835      C1836   1.392       .  A
C1835     Br1850   1.942       .  S
C1836      C1839   1.489       .  S
C1836      C1837   1.397       .  A
C1837      C1838   1.417       .  A
C1837     Br1845   1.936       .  S
C1838     Br1849   1.929       .  S
C1839      C1840   1.407       .  A
C1839      C1844   1.408       .  A
C1840      C1841   1.412       .  A
C1840     Br1851   1.929       .  S
C1841      C1842   1.418       .  A
C1841     Br1847   1.931       .  S
C1842      C1843   1.418       .  A
C1843      C1844   1.407       .  A
C1843     Br1852   1.934       .  S
C1844     Br1848   1.933       .  S
C1853      C1854   1.421       .  A
C1853      C1858   1.419       .  A
C1854      C1855   1.413       .  A
C1854     Br1866   1.932       .  S
C1855      C1856   1.407       .  A
C1855     Br1870   1.930       .  S
C1856      C1859   1.494       .  S
C1856      C1857   1.409       .  A
C1857      C1858   1.410       .  A
C1857     Br1865   1.932       .  S
C1858     Br1869   1.934       .  S
C1859      C1860   1.396       .  A
C1859      C1864   1.393       .  A
C1860      C1861   1.417       .  A
C1860     Br1871   1.936       .  S
C1861      C1862   1.455       .  A
C1861     Br1867   1.932       .  S
C1862      C1863   1.461       .  A
C1863      C1864   1.412       .  A
C1863     Br1872   1.941       .  S
C1864     Br1868   1.944       .  S
C1873      C1874   1.455       .  A
C1873      C1878   1.460       .  A
C1874      C1875   1.416       .  A
C1874     Br1886   1.931       .  S
C1875      C1876   1.395       .  A
C1875     Br1890   1.936       .  S
C1876      C1879   1.494       .  S
C1876      C1877   1.394       .  A
C1877      C1878   1.413       .  A
C1877     Br1885   1.944       .  S
C1878     Br1889   1.940       .  S
C1879      C1880   1.408       .  A
C1879      C1884   1.410       .  A
C1880      C1881   1.412       .  A
C1880     Br1891   1.930       .  S
C1881      C1882   1.419       .  A
C1881     Br1887   1.932       .  S
C1882      C1883   1.414       .  A
C1883      C1884   1.409       .  A
C1883     Br1892   1.932       .  S
C1884     Br1888   1.930       .  S
C1893      C1894   1.455       .  A
C1893      C1898   1.462       .  A
C1894      C1895   1.414       .  A
C1894     Br1906   1.933       .  S
C1895      C1896   1.395       .  A
C1895     Br1910   1.944       .  S
C1896      C1899   1.495       .  S
C1896      C1897   1.398       .  A
C1897      C1898   1.421       .  A
C1897     Br1905   1.942       .  S
C1898     Br1909   1.949       .  S
C1899      C1900   1.410       .  A
C1899      C1904   1.411       .  A
C1900      C1901   1.410       .  A
C1900     Br1911   1.931       .  S
C1901      C1902   1.415       .  A
C1901     Br1907   1.929       .  S
C1902      C1903   1.413       .  A
C1903      C1904   1.409       .  A
C1903     Br1912   1.932       .  S
C1904     Br1908   1.927       .  S
C1913      C1914   1.460       .  A
C1913      C1918   1.455       .  A
C1914      C1915   1.410       .  A
C1914     Br1926   1.939       .  S
C1915      C1916   1.392       .  A
C1915     Br1930   1.944       .  S
C1916      C1919   1.486       .  S
C1916      C1917   1.394       .  A
C1917      C1918   1.412       .  A
C1917     Br1925   1.936       .  S
C1918     Br1929   1.933       .  S
C1919      C1920   1.408       .  A
C1919      C1924   1.405       .  A
C1920      C1921   1.408       .  A
C1920     Br1931   1.932       .  S
C1921      C1922   1.419       .  A
C1921     Br1927   1.935       .  S
C1922      C1923   1.421       .  A
C1923      C1924   1.408       .  A
C1923     Br1932   1.934       .  S
C1924     Br1928   1.931       .  S
C1933      C1934   1.455       .  A
C1933      C1938   1.461       .  A
C1934      C1935   1.412       .  A
C1934     Br1946   1.933       .  S
C1935      C1936   1.395       .  A
C1935     Br1950   1.944       .  S
C1936      C1939   1.493       .  S
C1936      C1937   1.397       .  A
C1937      C1938   1.420       .  A
C1937     Br1945   1.941       .  S
C1938     Br1949   1.949       .  S
C1939      C1940   1.409       .  A
C1939      C1944   1.411       .  A
C1940      C1941   1.409       .  A
C1940     Br1951   1.931       .  S
C1941      C1942   1.414       .  A
C1941     Br1947   1.931       .  S
C1942      C1943   1.411       .  A
C1943      C1944   1.408       .  A
C1943     Br1952   1.931       .  S
C1944     Br1948   1.926       .  S
C1953      C1954   1.456       .  A
C1953      C1958   1.459       .  A
C1954      C1955   1.414       .  A
C1954     Br1966   1.933       .  S
C1955      C1956   1.394       .  A
C1955     Br1970   1.935       .  S
C1956      C1959   1.486       .  S
C1956      C1957   1.393       .  A
C1957      C1958   1.409       .  A
C1957     Br1965   1.946       .  S
C1958     Br1969   1.939       .  S
C1959      C1960   1.407       .  A
C1959      C1964   1.411       .  A
C1960      C1961   1.407       .  A
C1960     Br1971   1.929       .  S
C1961      C1962   1.411       .  A
C1961     Br1967   1.928       .  S
C1962      C1963   1.407       .  A
C1963      C1964   1.408       .  A
C1963     Br1972   1.928       .  S
C1964     Br1968   1.928       .  S
C1973      C1974   1.462       .  A
C1973      C1978   1.455       .  A
C1974      C1975   1.421       .  A
C1974     Br1986   1.949       .  S
C1975      C1976   1.398       .  A
C1975     Br1990   1.942       .  S
C1976      C1979   1.493       .  S
C1976      C1977   1.395       .  A
C1977      C1978   1.412       .  A
C1977     Br1985   1.946       .  S
C1978     Br1989   1.933       .  S
C1979      C1980   1.410       .  A
C1979      C1984   1.411       .  A
C1980      C1981   1.406       .  A
C1980     Br1991   1.927       .  S
C1981      C1982   1.411       .  A
C1981     Br1987   1.933       .  S
C1982      C1983   1.413       .  A
C1983      C1984   1.410       .  A
C1983     Br1992   1.930       .  S
C1984     Br1988   1.930       .  S
C1993      C1994   1.417       .  A
C1993      C1998   1.416       .  A
C1994      C1995   1.408       .  A
C1994     Br2006   1.934       .  S
C1995      C1996   1.410       .  A
C1995     Br2010   1.933       .  S
C1996      C1999   1.493       .  S
C1996      C1997   1.409       .  A
C1997      C1998   1.412       .  A
C1997     Br2005   1.929       .  S
C1998     Br2009   1.930       .  S
C1999      C2000   1.397       .  A
C1999      C2004   1.394       .  A
C2000      C2001   1.417       .  A
C2000     Br2011   1.937       .  S
C2001      C2002   1.454       .  A
C2001     Br2007   1.926       .  S
C2002      C2003   1.456       .  A
C2003      C2004   1.408       .  A
C2003     Br2012   1.938       .  S
C2004     Br2008   1.940       .  S
C2013      C2014   1.412   1_556  A
C2013      C2018   1.417       .  A
C2014      C2015   1.406       .  A
C2014     Br2026   1.934       .  S
C2015      C2016   1.410   1_554  A
C2015     Br2030   1.924       .  S
C2016      C2019   1.492       .  S
C2016      C2017   1.409       .  A
C2017      C2018   1.411       .  A
C2017     Br2025   1.931       .  S
C2018     Br2029   1.933       .  S
C2019      C2020   1.392       .  A
C2019      C2024   1.398       .  A
C2020      C2021   1.410       .  A
C2020     Br2031   1.944       .  S
C2021      C2022   1.458       .  A
C2021     Br2027   1.935       .  S
C2022      C2023   1.461       .  A
C2023      C2024   1.423       .  A
C2023     Br2032   1.943       .  S
C2024     Br2028   1.941       .  S
C2033      C2034   1.453       .  A
C2033      C2038   1.460   1_554  A
C2034      C2035   1.417       .  A
C2034     Br2046   1.931       .  S
C2035      C2036   1.396       .  A
C2035     Br2050   1.937       .  S
C2036      C2039   1.488       .  S
C2036      C2037   1.391   1_554  A
C2037      C2038   1.408       .  A
C2037     Br2045   1.945       .  S
C2038     Br2049   1.941       .  S
C2039      C2040   1.410       .  A
C2039      C2044   1.408       .  A
C2040      C2041   1.405       .  A
C2040     Br2051   1.929       .  S
C2041      C2042   1.411       .  A
C2041     Br2047   1.933       .  S
C2042      C2043   1.416       .  A
C2043      C2044   1.411       .  A
C2043     Br2052   1.931   1_544  S
C2044     Br2048   1.929   1_554  S
C2053      C2054   1.453       .  A
C2053      C2058   1.452       .  A
C2054      C2055   1.403       .  A
C2054     Br2066   1.940       .  S
C2055      C2056   1.393       .  A
C2055     Br2070   1.940       .  S
C2056      C2059   1.488       .  S
C2056      C2057   1.399       .  A
C2057      C2058   1.417       .  A
C2057     Br2065   1.934       .  S
C2058     Br2069   1.930       .  S
C2059      C2060   1.408       .  A
C2059      C2064   1.410       .  A
C2060      C2061   1.410       .  A
C2060     Br2071   1.929       .  S
C2061      C2062   1.417       .  A
C2061     Br2067   1.931       .  S
C2062      C2063   1.415       .  A
C2063      C2064   1.406       .  A
C2063     Br2072   1.934       .  S
C2064     Br2068   1.933       .  S
C2073      C2074   1.413       .  A
C2073      C2078   1.407       .  A
C2074      C2075   1.409       .  A
C2074     Br2086   1.931       .  S
C2075      C2076   1.410       .  A
C2075     Br2090   1.930       .  S
C2076      C2079   1.493       .  S
C2076      C2077   1.412       .  A
C2077      C2078   1.406       .  A
C2077     Br2085   1.922       .  S
C2078     Br2089   1.933       .  S
C2079      C2080   1.396       .  A
C2079      C2084   1.395       .  A
C2080      C2081   1.420       .  A
C2080     Br2091   1.942       .  S
C2081      C2082   1.462       .  A
C2081     Br2087   1.944   1_545  S
C2082      C2083   1.456       .  A
C2083      C2084   1.414       .  A
C2083     Br2092   1.933       .  S
C2084     Br2088   1.943       .  S
C2093      C2094   1.454   1_545  A
C2093      C2098   1.454       .  A
C2094      C2095   1.418       .  A
C2094     Br2106   1.928       .  S
C2095      C2096   1.398       .  A
C2095     Br2110   1.934       .  S
C2096      C2099   1.493       .  S
C2096      C2097   1.393   1_565  A
C2097      C2098   1.406       .  A
C2097     Br2105   1.939       .  S
C2098     Br2109   1.932       .  S
C2099      C2100   1.413       .  A
C2099      C2104   1.410       .  A
C2100      C2101   1.407       .  A
C2100     Br2111   1.930       .  S
C2101      C2102   1.408       .  A
C2101     Br2107   1.931       .  S
C2102      C2103   1.412       .  A
C2103      C2104   1.413       .  A
C2103     Br2112   1.928       .  S
C2104     Br2108   1.928       .  S
C2113      C2114   1.411       .  A
C2113      C2118   1.411   1_545  A
C2114      C2115   1.409       .  A
C2114     Br2126   1.930       .  S
C2115      C2116   1.411       .  A
C2115     Br2130   1.930       .  S
C2116      C2119   1.492       .  S
C2116      C2117   1.411   1_545  A
C2117      C2118   1.407       .  A
C2117     Br2125   1.927       .  S
C2118     Br2129   1.933       .  S
C2119      C2120   1.398       .  A
C2119      C2124   1.395       .  A
C2120      C2121   1.421       .  A
C2120     Br2131   1.942       .  S
C2121      C2122   1.460       .  A
C2121     Br2127   1.945       .  S
C2122      C2123   1.455       .  A
C2123      C2124   1.412       .  A
C2123     Br2132   1.933       .  S
C2124     Br2128   1.946       .  S
C2133      C2134   1.413       .  A
C2133      C2138   1.410       .  A
C2134      C2135   1.408       .  A
C2134     Br2146   1.931       .  S
C2135      C2136   1.409       .  A
C2135     Br2150   1.931       .  S
C2136      C2139   1.491       .  S
C2136      C2137   1.411       .  A
C2137      C2138   1.408       .  A
C2137     Br2145   1.925       .  S
C2138     Br2149   1.932       .  S
C2139      C2140   1.393       .  A
C2139      C2144   1.398       .  A
C2140      C2141   1.411       .  A
C2140     Br2151   1.945       .  S
C2141      C2142   1.458       .  A
C2141     Br2147   1.935       .  S
C2142      C2143   1.461       .  A
C2143      C2144   1.421       .  A
C2143     Br2152   1.947       .  S
C2144     Br2148   1.941       .  S
C2153      C2154   1.457       .  A
C2153      C2158   1.461       .  A
C2154      C2155   1.413       .  A
C2154     Br2166   1.930       .  S
C2155      C2156   1.394       .  A
C2155     Br2170   1.944       .  S
C2156      C2159   1.499       .  S
C2156      C2157   1.400       .  A
C2157      C2158   1.424       .  A
C2157     Br2165   1.941       .  S
C2158     Br2169   1.943       .  S
C2159      C2160   1.413       .  A
C2159      C2164   1.410       .  A
C2160      C2161   1.414       .  A
C2160     Br2171   1.929       .  S
C2161      C2162   1.413       .  A
C2161     Br2167   1.929       .  S
C2162      C2163   1.413       .  A
C2163      C2164   1.407       .  A
C2163     Br2172   1.933       .  S
C2164     Br2168   1.927       .  S
C2173      C2174   1.462       .  A
C2173      C2178   1.456       .  A
C2174      C2175   1.410       .  A
C2174     Br2186   1.944       .  S
C2175      C2176   1.392       .  A
C2175     Br2190   1.944       .  S
C2176      C2179   1.493       .  S
C2176      C2177   1.396       .  A
C2177      C2178   1.419       .  A
C2177     Br2185   1.936       .  S
C2178     Br2189   1.931       .  S
C2179      C2180   1.412       .  A
C2179      C2184   1.410       .  A
C2180      C2181   1.409       .  A
C2180     Br2191   1.930       .  S
C2181      C2182   1.408       .  A
C2181     Br2187   1.928       .  S
C2182      C2183   1.410       .  A
C2183      C2184   1.412       .  A
C2183     Br2192   1.928       .  S
C2184     Br2188   1.927       .  S
C2193      C2194   1.442   1_556  A
C2193      C2198   1.438       .  A
C2194      C2195   1.422       .  A
C2194     Br2206   1.918       .  S
C2195      C2196   1.406   1_554  A
C2195     Br2210   1.934       .  S
C2196      C2199   1.496       .  S
C2196      C2197   1.398       .  A
C2197      C2198   1.408       .  A
C2197     Br2205   1.939       .  S
C2198     Br2209   1.917       .  S
C2199      C2200   1.410       .  A
C2199      C2204   1.411       .  A
C2200      C2201   1.407       .  A
C2200     Br2211   1.927       .  S
C2201      C2202   1.418       .  A
C2201     Br2207   1.938       .  S
C2202      C2203   1.420       .  A
C2203      C2204   1.413       .  A
C2203     Br2212   1.933       .  S
C2204     Br2208   1.933       .  S
C2213      C2214   1.412   1_554  A
C2213      C2218   1.412       .  A
C2214      C2215   1.406       .  A
C2214     Br2226   1.936       .  S
C2215      C2216   1.414   1_556  A
C2215     Br2230   1.926       .  S
C2216      C2219   1.495       .  S
C2216      C2217   1.414       .  A
C2217      C2218   1.409       .  A
C2217     Br2225   1.933       .  S
C2218     Br2229   1.932       .  S
C2219      C2220   1.405   1_554  A
C2219      C2224   1.397       .  A
C2220      C2221   1.420       .  A
C2220     Br2231   1.935       .  S
C2221      C2222   1.446   1_556  A
C2221     Br2227   1.928       .  S
C2222      C2223   1.445       .  A
C2223      C2224   1.412       .  A
C2223     Br2232   1.914       .  S
C2224     Br2228   1.944       .  S
C2233      C2234   1.442       .  A
C2233      C2238   1.446       .  A
C2234      C2235   1.425       .  A
C2234     Br2246   1.921       .  S
C2235      C2236   1.409       .  A
C2235     Br2250   1.935       .  S
C2236      C2239   1.498       .  S
C2236      C2237   1.397       .  A
C2237      C2238   1.410       .  A
C2237     Br2245   1.940       .  S
C2238     Br2249   1.930       .  S
C2239      C2240   1.412       .  A
C2239      C2244   1.416       .  A
C2240      C2241   1.411       .  A
C2240     Br2251   1.932       .  S
C2241      C2242   1.415       .  A
C2241     Br2247   1.932       .  S
C2242      C2243   1.410       .  A
C2243      C2244   1.407       .  A
C2243     Br2252   1.937       .  S
C2244     Br2248   1.923       .  S
C2253      C2254   1.406       .  A
C2253      C2258   1.410       .  A
C2254      C2255   1.406       .  A
C2254     Br2266   1.932       .  S
C2255      C2256   1.414       .  A
C2255     Br2270   1.928       .  S
C2256      C2259   1.490       .  S
C2256      C2257   1.410       .  A
C2257      C2258   1.409       .  A
C2257     Br2265   1.929       .  S
C2258     Br2269   1.928       .  S
C2259      C2260   1.392       .  A
C2259      C2264   1.396       .  A
C2260      C2261   1.409       .  A
C2260     Br2271   1.942       .  S
C2261      C2262   1.459       .  A
C2261     Br2267   1.934       .  S
C2262      C2263   1.454       .  A
C2263      C2264   1.414       .  A
C2263     Br2272   1.930       .  S
C2264     Br2268   1.936       .  S
C2273      C2274   1.418       .  A
C2273      C2278   1.416       .  A
C2274      C2275   1.413       .  A
C2274     Br2286   1.932       .  S
C2275      C2276   1.409       .  A
C2275     Br2290   1.930       .  S
C2276      C2279   1.495       .  S
C2276      C2277   1.410       .  A
C2277      C2278   1.410       .  A
C2277     Br2285   1.931       .  S
C2278     Br2289   1.933       .  S
C2279      C2280   1.395       .  A
C2279      C2284   1.394       .  A
C2280      C2281   1.417       .  A
C2280     Br2291   1.939       .  S
C2281      C2282   1.455       .  A
C2281     Br2287   1.930       .  S
C2282      C2283   1.465       .  A
C2283      C2284   1.417       .  A
C2283     Br2292   1.945       .  S
C2284     Br2288   1.948       .  S
C2293      C2294   1.419       .  A
C2293      C2298   1.416       .  A
C2294      C2295   1.411       .  A
C2294     Br2306   1.932       .  S
C2295      C2296   1.408       .  A
C2295     Br2310   1.932       .  S
C2296      C2299   1.494       .  S
C2296      C2297   1.409       .  A
C2297      C2298   1.409       .  A
C2297     Br2305   1.926       .  S
C2298     Br2309   1.934       .  S
C2299      C2300   1.398       .  A
C2299      C2304   1.394       .  A
C2300      C2301   1.422       .  A
C2300     Br2311   1.940       .  S
C2301      C2302   1.460       .  A
C2301     Br2307   1.942       .  S
C2302      C2303   1.456       .  A
C2303      C2304   1.412       .  A
C2303     Br2312   1.931       .  S
C2304     Br2308   1.945       .  S
C2313      C2314   1.420       .  A
C2313      C2318   1.419       .  A
C2314      C2315   1.412       .  A
C2314     Br2326   1.934       .  S
C2315      C2316   1.409       .  A
C2315     Br2330   1.929       .  S
C2316      C2319   1.494       .  S
C2316      C2317   1.407       .  A
C2317      C2318   1.411       .  A
C2317     Br2325   1.932       .  S
C2318     Br2329   1.932       .  S
C2319      C2320   1.394       .  A
C2319      C2324   1.399       .  A
C2320      C2321   1.409       .  A
C2320     Br2331   1.942       .  S
C2321      C2322   1.455       .  A
C2321     Br2327   1.932       .  S
C2322      C2323   1.458       .  A
C2323      C2324   1.421       .  A
C2323     Br2332   1.940       .  S
C2324     Br2328   1.937       .  S
C2333      C2334   1.460       .  A
C2333      C2338   1.456       .  A
C2334      C2335   1.423       .  A
C2334     Br2346   1.946       .  S
C2335      C2336   1.400       .  A
C2335     Br2350   1.942       .  S
C2336      C2339   1.495       .  S
C2336      C2337   1.395       .  A
C2337      C2338   1.412       .  A
C2337     Br2345   1.947       .  S
C2338     Br2349   1.932       .  S
C2339      C2340   1.411       .  A
C2339      C2344   1.410       .  A
C2340      C2341   1.411       .  A
C2340     Br2351   1.931       .  S
C2341      C2342   1.414       .  A
C2341     Br2347   1.929       .  S
C2342      C2343   1.417       .  A
C2343      C2344   1.406       .  A
C2343     Br2352   1.936       .  S
C2344     Br2348   1.930       .  S
C2353      C2354   1.461       .  A
C2353      C2358   1.455       .  A
C2354      C2355   1.409       .  A
C2354     Br2366   1.937       .  S
C2355      C2356   1.391       .  A
C2355     Br2370   1.945       .  S
C2356      C2359   1.489       .  S
C2356      C2357   1.394       .  A
C2357      C2358   1.417       .  A
C2357     Br2365   1.936       .  S
C2358     Br2369   1.927       .  S
C2359      C2360   1.409       .  A
C2359      C2364   1.412       .  A
C2360      C2361   1.409       .  A
C2360     Br2371   1.928       .  S
C2361      C2362   1.410       .  A
C2361     Br2367   1.929       .  S
C2362      C2363   1.405       .  A
C2363      C2364   1.406       .  A
C2363     Br2372   1.930       .  S
C2364     Br2368   1.926       .  S
C2373      C2374   1.460       .  A
C2373      C2378   1.456       .  A
C2374      C2375   1.421       .  A
C2374     Br2386   1.945       .  S
C2375      C2376   1.398       .  A
C2375     Br2390   1.937       .  S
C2376      C2379   1.492       .  S
C2376      C2377   1.393       .  A
C2377      C2378   1.409       .  A
C2377     Br2385   1.944       .  S
C2378     Br2389   1.932       .  S
C2379      C2380   1.408       .  A
C2379      C2384   1.411       .  A
C2380      C2381   1.409       .  A
C2380     Br2391   1.931       .  S
C2381      C2382   1.416       .  A
C2381     Br2387   1.932       .  S
C2382      C2383   1.412       .  A
C2383      C2384   1.408       .  A
C2383     Br2392   1.933       .  S
C2384     Br2388   1.923       .  S
C2393      C2394   1.461       .  A
C2393      C2398   1.456       .  A
C2394      C2395   1.421       .  A
C2394     Br2406   1.946       .  S
C2395      C2396   1.398       .  A
C2395     Br2410   1.940       .  S
C2396      C2399   1.490       .  S
C2396      C2397   1.392       .  A
C2397      C2398   1.408       .  A
C2397     Br2405   1.944       .  S
C2398     Br2409   1.931       .  S
C2399      C2400   1.409       .  A
C2399      C2404   1.408       .  A
C2400      C2401   1.410       .  A
C2400     Br2411   1.930       .  S
C2401      C2402   1.415       .  A
C2401     Br2407   1.931       .  S
C2402      C2403   1.415       .  A
C2403      C2404   1.406       .  A
C2403     Br2412   1.934       .  S
C2404     Br2408   1.928       .  S
C2413      C2414   1.462       .  A
C2413      C2418   1.456       .  A
C2414      C2415   1.410       .  A
C2414     Br2426   1.942       .  S
C2415      C2416   1.391       .  A
C2415     Br2430   1.944       .  S
C2416      C2419   1.487       .  S
C2416      C2417   1.393       .  A
C2417      C2418   1.414       .  A
C2417     Br2425   1.937       .  S
C2418     Br2429   1.933       .  S
C2419      C2420   1.407       .  A
C2419      C2424   1.411       .  A
C2420      C2421   1.409       .  A
C2420     Br2431   1.930       .  S
C2421      C2422   1.416       .  A
C2421     Br2427   1.932       .  S
C2422      C2423   1.410       .  A
C2423      C2424   1.407       .  A
C2423     Br2432   1.931       .  S
C2424     Br2428   1.929       .  S
C2433      C2434   1.466       .  A
C2433      C2438   1.454       .  A
C2434      C2435   1.417       .  A
C2434     Br2446   1.946       .  S
C2435      C2436   1.394       .  A
C2435     Br2450   1.951       .  S
C2436      C2439   1.489       .  S
C2436      C2437   1.392       .  A
C2437      C2438   1.413       .  A
C2437     Br2445   1.940       .  S
C2438     Br2449   1.933       .  S
C2439      C2440   1.406       .  A
C2439      C2444   1.409       .  A
C2440      C2441   1.408       .  A
C2440     Br2451   1.931       .  S
C2441      C2442   1.419       .  A
C2441     Br2447   1.933       .  S
C2442      C2443   1.418       .  A
C2443      C2444   1.409       .  A
C2443     Br2452   1.934       .  S
C2444     Br2448   1.932       .  S
C2453      C2454   1.425       .  A
C2453      C2458   1.419       .  A
C2454      C2455   1.415       .  A
C2454     Br2466   1.933       .  S
C2455      C2456   1.405       .  A
C2455     Br2470   1.931       .  S
C2456      C2459   1.497       .  S
C2456      C2457   1.411       .  A
C2457      C2458   1.410       .  A
C2457     Br2465   1.929       .  S
C2458     Br2469   1.936       .  S
C2459      C2460   1.400       .  A
C2459      C2464   1.394       .  A
C2460      C2461   1.421       .  A
C2460     Br2471   1.937       .  S
C2461      C2462   1.458       .  A
C2461     Br2467   1.948       .  S
C2462      C2463   1.446       .  A
C2463      C2464   1.408       .  A
C2463     Br2472   1.931       .  S
C2464     Br2468   1.939       .  S
C2473      C2474   1.462       .  A
C2473      C2478   1.456       .  A
C2474      C2475   1.422       .  A
C2474     Br2486   1.946       .  S
C2475      C2476   1.398       .  A
C2475     Br2490   1.939       .  S
C2476      C2479   1.495       .  S
C2476      C2477   1.394       .  A
C2477      C2478   1.412       .  A
C2477     Br2485   1.945       .  S
C2478     Br2489   1.930       .  S
C2479      C2480   1.408       .  A
C2479      C2484   1.407       .  A
C2480      C2481   1.410       .  A
C2480     Br2491   1.927       .  S
C2481      C2482   1.420       .  A
C2481     Br2487   1.935       .  S
C2482      C2483   1.419       .  A
C2483      C2484   1.411       .  A
C2483     Br2492   1.932       .  S
C2484     Br2488   1.931       .  S
C2493      C2494   1.456       .  A
C2493      C2498   1.463       .  A
C2494      C2495   1.418       .  A
C2494     Br2506   1.933       .  S
C2495      C2496   1.396       .  A
C2495     Br2510   1.935       .  S
C2496      C2499   1.500       .  S
C2496      C2497   1.394       .  A
C2497      C2498   1.417       .  A
C2497     Br2505   1.946       .  S
C2498     Br2509   1.934       .  S
C2499      C2500   1.409       .  A
C2499      C2504   1.412       .  A
C2500      C2501   1.413       .  A
C2500     Br2511   1.929       .  S
C2501      C2502   1.416       .  A
C2501     Br2507   1.929       .  S
C2502      C2503   1.414       .  A
C2503      C2504   1.413       .  A
C2503     Br2512   1.932       .  S
C2504     Br2508   1.928       .  S
C2513      C2514   1.459       .  A
C2513      C2518   1.456       .  A
C2514      C2515   1.421       .  A
C2514     Br2526   1.941       .  S
C2515      C2516   1.399       .  A
C2515     Br2530   1.940       .  S
C2516      C2519   1.490       .  S
C2516      C2517   1.391       .  A
C2517      C2518   1.408       .  A
C2517     Br2525   1.943       .  S
C2518     Br2529   1.933       .  S
C2519      C2520   1.407       .  A
C2519      C2524   1.411       .  A
C2520      C2521   1.408       .  A
C2520     Br2531   1.932       .  S
C2521      C2522   1.419       .  A
C2521     Br2527   1.933       .  S
C2522      C2523   1.411       .  A
C2523      C2524   1.405       .  A
C2523     Br2532   1.935       .  S
C2524     Br2528   1.922       .  S
C2533      C2534   1.467       .  A
C2533      C2538   1.454   1_545  A
C2534      C2535   1.421       .  A
C2534     Br2546   1.944       .  S
C2535      C2536   1.396   1_545  A
C2535     Br2550   1.949       .  S
C2536      C2539   1.499       .  S
C2536      C2537   1.395       .  A
C2537      C2538   1.418       .  A
C2537     Br2545   1.939       .  S
C2538     Br2549   1.929       .  S
C2539      C2540   1.413       .  A
C2539      C2544   1.410       .  A
C2540      C2541   1.413       .  A
C2540     Br2551   1.929       .  S
C2541      C2542   1.411       .  A
C2541     Br2547   1.928       .  S
C2542      C2543   1.411       .  A
C2543      C2544   1.411       .  A
C2543     Br2552   1.929   1_565  S
C2544     Br2548   1.929   1_565  S
C2553      C2554   1.420       .  A
C2553      C2558   1.416   1_545  A
C2554      C2555   1.414       .  A
C2554     Br2566   1.932       .  S
C2555      C2556   1.411       .  A
C2555     Br2570   1.932       .  S
C2556      C2559   1.501       .  S
C2556      C2557   1.412   1_545  A
C2557      C2558   1.408       .  A
C2557     Br2565   1.928       .  S
C2558     Br2569   1.936       .  S
C2559      C2560   1.397       .  A
C2559      C2564   1.401       .  A
C2560      C2561   1.415       .  A
C2560     Br2571   1.946       .  S
C2561      C2562   1.459       .  A
C2561     Br2567   1.938       .  S
C2562      C2563   1.459       .  A
C2563      C2564   1.424       .  A
C2563     Br2572   1.946       .  S
C2564     Br2568   1.941       .  S
C2573      C2574   1.412       .  A
C2573      C2578   1.409       .  A
C2574      C2575   1.411       .  A
C2574     Br2586   1.930       .  S
C2575      C2576   1.411       .  A
C2575     Br2590   1.929       .  S
C2576      C2579   1.493       .  S
C2576      C2577   1.412       .  A
C2577      C2578   1.407       .  A
C2577     Br2585   1.927       .  S
C2578     Br2589   1.933       .  S
C2579      C2580   1.391       .  A
C2579      C2584   1.401       .  A
C2580      C2581   1.404       .  A
C2580     Br2591   1.941       .  S
C2581      C2582   1.453       .  A
C2581     Br2587   1.928       .  S
C2582      C2583   1.460       .  A
C2583      C2584   1.423       .  A
C2583     Br2592   1.940       .  S
C2584     Br2588   1.936       .  S
C2593      C2594   1.418       .  A
C2593      C2598   1.415       .  A
C2594      C2595   1.409       .  A
C2594     Br2606   1.933       .  S
C2595      C2596   1.407       .  A
C2595     Br2610   1.932       .  S
C2596      C2599   1.490       .  S
C2596      C2597   1.409       .  A
C2597      C2598   1.407       .  A
C2597     Br2605   1.926       .  S
C2598     Br2609   1.934       .  S
C2599      C2600   1.397       .  A
C2599      C2604   1.392       .  A
C2600      C2601   1.421       .  A
C2600     Br2611   1.940       .  S
C2601      C2602   1.462       .  A
C2601     Br2607   1.949       .  S
C2602      C2603   1.457       .  A
C2603      C2604   1.409       .  A
C2603     Br2612   1.935       .  S
C2604     Br2608   1.945       .  S
C2613      C2614   1.418       .  A
C2613      C2618   1.415       .  A
C2614      C2615   1.412       .  A
C2614     Br2626   1.931       .  S
C2615      C2616   1.408       .  A
C2615     Br2630   1.929       .  S
C2616      C2619   1.493       .  S
C2616      C2617   1.410       .  A
C2617      C2618   1.409       .  A
C2617     Br2625   1.931       .  S
C2618     Br2629   1.933       .  S
C2619      C2620   1.392       .  A
C2619      C2624   1.396       .  A
C2620      C2621   1.412       .  A
C2620     Br2631   1.946       .  S
C2621      C2622   1.464       .  A
C2621     Br2627   1.945       .  S
C2622      C2623   1.453       .  A
C2623      C2624   1.417       .  A
C2623     Br2632   1.932       .  S
C2624     Br2628   1.937       .  S
C2633      C2634   1.416       .  A
C2633      C2638   1.415       .  A
C2634      C2635   1.409       .  A
C2634     Br2646   1.932       .  S
C2635      C2636   1.410       .  A
C2635     Br2650   1.932       .  S
C2636      C2639   1.490       .  S
C2636      C2637   1.410       .  A
C2637      C2638   1.405       .  A
C2637     Br2645   1.932       .  S
C2638     Br2649   1.935       .  S
C2639      C2640   1.395       .  A
C2639      C2644   1.396       .  A
C2640      C2641   1.412       .  A
C2640     Br2651   1.946       .  S
C2641      C2642   1.454       .  A
C2641     Br2647   1.933       .  S
C2642      C2643   1.464       .  A
C2643      C2644   1.419       .  A
C2643     Br2652   1.952       .  S
C2644     Br2648   1.945       .  S
C2653      C2654   1.414       .  A
C2653      C2658   1.413       .  A
C2654      C2655   1.411       .  A
C2654     Br2666   1.929       .  S
C2655      C2656   1.409       .  A
C2655     Br2670   1.929       .  S
C2656      C2659   1.490       .  S
C2656      C2657   1.410       .  A
C2657      C2658   1.406       .  A
C2657     Br2665   1.932       .  S
C2658     Br2669   1.933       .  S
C2659      C2660   1.396       .  A
C2659      C2664   1.390       .  A
C2660      C2661   1.418       .  A
C2660     Br2671   1.937       .  S
C2661      C2662   1.456       .  A
C2661     Br2667   1.934       .  S
C2662      C2663   1.464       .  A
C2663      C2664   1.410       .  A
C2663     Br2672   1.941       .  S
C2664     Br2668   1.948       .  S
C2673      C2674   1.416       .  A
C2673      C2678   1.411       .  A
C2674      C2675   1.414       .  A
C2674     Br2686   1.931       .  S
C2675      C2676   1.413       .  A
C2675     Br2690   1.931       .  S
C2676      C2679   1.507       .  S
C2676      C2677   1.415       .  A
C2677      C2678   1.410       .  A
C2677     Br2685   1.917       .  S
C2678     Br2689   1.936       .  S
C2679      C2680   1.402       .  A
C2679      C2684   1.400       .  A
C2680      C2681   1.423       .  A
C2680     Br2691   1.935       .  S
C2681      C2682   1.446       .  A
C2681     Br2687   1.920       .  S
C2682      C2683   1.448       .  A
C2683      C2684   1.422       .  A
C2683     Br2692   1.911       .  S
C2684     Br2688   1.939       .  S
C2693      C2694   1.418       .  A
C2693      C2698   1.420       .  A
C2694      C2695   1.409       .  A
C2694     Br2706   1.936       .  S
C2695      C2696   1.411       .  A
C2695     Br2710   1.928       .  S
C2696      C2699   1.502       .  S
C2696      C2697   1.412       .  A
C2697      C2698   1.415       .  A
C2697     Br2705   1.931       .  S
C2698     Br2709   1.932       .  S
C2699      C2700   1.396       .  A
C2699      C2704   1.401       .  A
C2700      C2701   1.415       .  A
C2700     Br2711   1.946       .  S
C2701      C2702   1.458       .  A
C2701     Br2707   1.935       .  S
C2702      C2703   1.460       .  A
C2703      C2704   1.425       .  A
C2703     Br2712   1.945   1_655  S
C2704     Br2708   1.941       .  S
