geometry optimzed in LAMMPS
_audit_creation_date              2020-11-30 
_audit_creation_method            'lammps2cif' 
_symmetry_space_group_name_H-M    'P1' 
_symmetry_Int_Tables_number       1 
_symmetry_cell_setting            triclinic 
loop_ 
_symmetry_equiv_pos_as_xyz 
  x,y,z 
_cell_length_a                    34.78080873 
_cell_length_b                    34.88968937241266 
_cell_length_c                    34.764698527500094 
_cell_angle_alpha                 89.83341250892775 
_cell_angle_beta                  89.6896734445963 
_cell_angle_gamma                 90.32690873475437 
loop_ 
_atom_site_label 
_atom_site_type_symbol 
_atom_site_fract_x 
_atom_site_fract_y 
_atom_site_fract_z 
_atom_site_charge 
C1          C  0.56284875  0.64595981  0.02559937     0.80500
N2          N  0.53188338  0.67024940  0.02858902    -0.77800
C3          C  0.49512665  0.65568972  0.02695274     0.82900
N4          N  0.48995908  0.61776442  0.02173649    -0.77800
C5          C  0.51994548  0.59390537  0.01748836     0.83000
N6          N  0.55623357  0.60798144  0.01979235    -0.79500
C7          C  0.51349984  0.37083333  0.98359226     0.80500
N8          N  0.51978554  0.40828657  0.99088906    -0.77800
C9          C  0.49045645  0.43291067  0.99547723     0.82900
N10         N  0.45381503  0.41990990  0.99265899    -0.77800
C11         C  0.44612041  0.38246518  0.98525944     0.83000
N12         N  0.47634820  0.35749427  0.98048898    -0.79500
C13         C  0.62436069  0.99784358  0.43694299     0.80500
N14         N  0.58720837  0.00690917  0.44501157    -0.77800
C15         C  0.57491494  0.01061698  0.48190316     0.82900
N16         N  0.60005725  0.00614933  0.51100464    -0.77800
C17         C  0.63725216  0.99760592  0.50413568     0.83000
N18         N  0.64974018  0.99338742  0.46687510    -0.79500
C19         C  0.35493260  0.05424838  0.49132723     0.80500
N20         N  0.39333068  0.05208852  0.48568932    -0.77800
C21         C  0.41790558  0.05011044  0.51545169     0.82900
N22         N  0.40397960  0.05017078  0.55188289    -0.77800
C23         C  0.36568992  0.05297642  0.55902585     0.83000
N24         N  0.34072226  0.05451462  0.52837193    -0.79500
O25         O  0.71265914  0.05479620  0.96738824    -0.72700
O26         O  0.73650358  0.94478852  0.96462323    -0.73700
O27         O  0.72516729  0.00221320  0.90746968    -0.62300
O28         O  0.72166623  0.99688940  0.02477918    -0.70700
O29         O  0.65921803  0.98448761  0.02281985    -0.70300
O30         O  0.66319023  0.98749772  0.90517157    -0.61500
O31         O  0.67445686  0.92952881  0.96286874    -0.74000
O32         O  0.64987087  0.04286323  0.96487357    -0.72800
Cu33       Cu  0.72600232  0.00010655  0.96612128     1.04600
Cu34       Cu  0.65937344  0.98557747  0.96385081     1.04300
C35         C  0.67814055  0.06646692  0.96594935     0.93500
C36         C  0.70985512  0.91969317  0.96399264     0.92600
C37         C  0.69466823  0.99601151  0.88779638     0.84800
C38         C  0.68991806  0.98960482  0.04240425     0.91000
C39         C  0.69669266  0.99781055  0.21057629     0.03400
C40         C  0.67017555  0.99026105  0.24141474    -0.12800
C41         C  0.68100267  0.99803739  0.28022312     0.00900
C42         C  0.71717334  0.01370270  0.28731190    -0.11300
C43         C  0.74357553  0.01993888  0.25791862     0.03400
C44         C  0.73318176  0.01288017  0.21985598    -0.10700
H45         H  0.64233981  0.97763415  0.23554079     0.09000
H46         H  0.72568252  0.01969413  0.31670711     0.06500
H47         H  0.75432568  0.01800021  0.19738495     0.06300
C48         C  0.73106550  0.28395020  0.97224983     0.03400
C49         C  0.69872263  0.30894194  0.97398506    -0.12800
C50         C  0.66059353  0.29380137  0.97141135     0.00900
C51         C  0.65532517  0.25421848  0.96831900    -0.11300
C52         C  0.68656364  0.22967794  0.96673864     0.03400
C53         C  0.72396804  0.24442892  0.96790312    -0.10700
H54         H  0.70299587  0.33943593  0.97785806     0.09000
H55         H  0.62647468  0.24226471  0.96740580     0.06500
H56         H  0.74779428  0.22460672  0.96607982     0.06300
O57         O  0.02253720  0.91748013  0.66265115    -0.72700
O58         O  0.02059875  0.03501060  0.65890930    -0.73700
O59         O  0.07831982  0.97790130  0.66798568    -0.62300
O60         O  0.96378201  0.97518924  0.65451913    -0.70700
O61         O  0.95732126  0.98064494  0.71784380    -0.70300
O62         O  0.07025031  0.97548780  0.73136763    -0.61500
O63         O  0.01726438  0.03623841  0.72252099    -0.74000
O64         O  0.01104014  0.91925089  0.72534840    -0.72800
Cu65       Cu  0.02151143  0.97615889  0.65873855     1.04600
Cu66       Cu  0.01360414  0.97780046  0.72639583     1.04300
C67         C  0.01678967  0.89985501  0.69457540     0.93500
C68         C  0.01996634  0.05415257  0.69031688     0.92600
C69         C  0.09215668  0.97767219  0.70197039     0.84800
C70         C  0.94257978  0.97900485  0.68439528     0.91000
C71         C  0.01988392  0.22185481  0.70176540     0.03400
C72         C  0.02379157  0.25257907  0.67456741    -0.12800
C73         C  0.01977783  0.29136854  0.68694721     0.00900
C74         C  0.01110648  0.29859916  0.72535535    -0.11300
C75         C  0.00873350  0.26924726  0.75230400     0.03400
C76         C  0.01234408  0.23116859  0.74048001    -0.10700
H77         H  0.03052080  0.24652412  0.64477702     0.09000
H78         H  0.00687932  0.32795989  0.73465691     0.06500
H79         H  0.00962594  0.20857667  0.76181139     0.06300
C80         C  0.29558017  0.03505089  0.78564810     0.03400
C81         C  0.32102203  0.04513963  0.75472425    -0.12800
C82         C  0.31027068  0.03726672  0.71595481     0.00900
C83         C  0.27580864  0.01794202  0.70918124    -0.11300
C84         C  0.24991150  0.00977467  0.73868733     0.03400
C85         C  0.26015861  0.01756668  0.77671738    -0.10700
H86         H  0.34784309  0.05981780  0.76060609     0.09000
H87         H  0.26785200  0.01115274  0.67981503     0.06500
H88         H  0.23981388  0.01114316  0.79956076     0.06300
O89         O  0.34779005  0.98168169  0.03088357    -0.72700
O90         O  0.32716932  0.09471826  0.03120767    -0.73700
O91         O  0.33596429  0.03751423  0.09040997    -0.62300
O92         O  0.33987139  0.03928579  0.97261595    -0.70700
O93         O  0.27656323  0.03250170  0.97118976    -0.70300
O94         O  0.27407799  0.02242662  0.08819989    -0.61500
O95         O  0.26436078  0.08297332  0.03365619    -0.74000
O96         O  0.28488423  0.97199309  0.02496645    -0.72800
Cu97       Cu  0.33997690  0.03872885  0.03154613     1.04600
Cu98       Cu  0.27287879  0.02704528  0.02962135     1.04300
C99         C  0.31906070  0.95919456  0.02642714     0.93500
C100        C  0.29242138  0.10649451  0.03175205     0.92600
C101        C  0.30449760  0.02895976  0.10786596     0.84800
C102        C  0.30865162  0.03697870  0.95331653     0.91000
O103        O  0.98046820  0.10294318  0.27271146    -0.72700
O104        O  0.98143129  0.98574044  0.27837267    -0.73700
O105        O  0.92426426  0.04382260  0.26722267    -0.62300
O106        O  0.03650069  0.04556211  0.28196390    -0.70700
O107        O  0.02946247  0.04770475  0.34543756    -0.70300
O108        O  0.91493508  0.04584317  0.33048366    -0.61500
O109        O  0.97227787  0.98824466  0.34143503    -0.74000
O110        O  0.97158212  0.10601867  0.33569539    -0.72800
Cu111      Cu  0.98081246  0.04443921  0.27298535     1.04600
Cu112      Cu  0.97167365  0.04713272  0.34055256     1.04300
C113        C  0.97647966  0.12307366  0.30327991     0.93500
C114        C  0.97771448  0.96850361  0.31087570     0.92600
C115        C  0.90182699  0.04420252  0.29624840     0.84800
C116        C  0.05095394  0.04671862  0.31548751     0.91000
O117        O  0.91970966  0.28555847  0.98565920    -0.72700
O118        O  0.03545560  0.29996884  0.99430448    -0.73700
O119        O  0.97158081  0.30175559  0.04534990    -0.62300
O120        O  0.98289385  0.28199171  0.93413942    -0.70700
O121        O  0.97655877  0.34402476  0.92103373    -0.70300
O122        O  0.96670327  0.36437719  0.03460214    -0.61500
O123        O  0.02980692  0.36177117  0.98068337    -0.74000
O124        O  0.91271628  0.34749744  0.97416716    -0.72800
Cu125      Cu  0.97767444  0.29030008  0.99015869     1.04600
Cu126      Cu  0.97116595  0.35671110  0.97714778     1.04300
C127        C  0.89769018  0.31420965  0.97945802     0.93500
C128        C  0.05099401  0.33297046  0.98881813     0.92600
C129        C  0.96737740  0.33577032  0.05767649     0.84800
C130        C  0.98138326  0.30945662  0.91003283     0.91000
C131        C  0.96922546  0.28934296  0.27775081     0.03400
C132        C  0.96536227  0.29506839  0.23788260    -0.12800
C133        C  0.96299639  0.33177551  0.22194177     0.00900
C134        C  0.96378316  0.36375217  0.24566445    -0.11300
C135        C  0.96624830  0.35990801  0.28559971     0.03400
C136        C  0.96892526  0.32237604  0.30200811    -0.10700
H137        H  0.96494493  0.27062545  0.21869792     0.09000
H138        H  0.96186397  0.39205976  0.23283420     0.06500
H139        H  0.97179447  0.31912767  0.33282772     0.06300
C140        C  0.27418085  0.02763116  0.27272011     0.03400
C141        C  0.23401586  0.02927265  0.27597169    -0.12800
C142        C  0.21588866  0.03677094  0.31112570     0.00900
C143        C  0.23793693  0.04086128  0.34422489    -0.11300
C144        C  0.27808219  0.03814319  0.34305786     0.03400
C145        C  0.29649690  0.03233867  0.30666928    -0.10700
H146        H  0.21658042  0.02550133  0.25051000     0.09000
H147        H  0.22359826  0.04718448  0.37122339     0.06500
H148        H  0.32752058  0.03075047  0.30486971     0.06300
C149        C  0.21696108  0.32032911  0.99735986     0.03400
C150        C  0.24956679  0.34471254  0.99098154    -0.12800
C151        C  0.28740390  0.32904821  0.99182264     0.00900
C152        C  0.29162274  0.29015328  0.00011656    -0.11300
C153        C  0.26014457  0.26562203  0.00338044     0.03400
C154        C  0.22306909  0.28074107  0.00207768    -0.10700
H155        H  0.24560313  0.37502634  0.98575084     0.09000
H156        H  0.32028381  0.27854686  0.00345888     0.06500
H157        H  0.19863241  0.26148400  0.00487306     0.06300
O158        O  0.02860294  0.72970266  0.95849843    -0.72700
O159        O  0.03524607  0.74684367  0.07093277    -0.73700
O160        O  0.09064856  0.74132746  0.01027234    -0.62300
O161        O  0.97365802  0.73356107  0.01928062    -0.70700
O162        O  0.97754727  0.67034263  0.02366133    -0.70300
O163        O  0.09467550  0.67937560  0.02386259    -0.61500
O164        O  0.03479494  0.68387119  0.08064685    -0.74000
O165        O  0.03722189  0.66711708  0.96642402    -0.72800
Cu166      Cu  0.03197106  0.74000090  0.01438590     1.04600
Cu167      Cu  0.03633071  0.67292757  0.02398397     1.04300
C168        C  0.03228386  0.69617720  0.94459383     0.93500
C169        C  0.03428252  0.71812636  0.09360862     0.92600
C170        C  0.11111796  0.71148577  0.01637155     0.84800
C171        C  0.95710819  0.70073333  0.02256148     0.91000
C172        C  0.99042754  0.80106124  0.30247770     0.03400
C173        C  0.98081056  0.76989043  0.32779580    -0.12800
C174        C  0.98508702  0.73118248  0.31511787     0.00900
C175        C  0.99985394  0.72455688  0.27838281    -0.11300
C176        C  0.00755907  0.75444331  0.25283867     0.03400
C177        C  0.00285794  0.79234605  0.26491708    -0.10700
H178        H  0.97014973  0.77558924  0.35650663     0.09000
H179        H  0.00392323  0.69525016  0.26885836     0.06500
H180        H  0.00783434  0.81538355  0.24447857     0.06300
C181        C  0.27637088  0.73885534  0.01221429     0.03400
C182        C  0.28095734  0.77880590  0.01210076    -0.12800
C183        C  0.31735210  0.79575096  0.01478946     0.00900
C184        C  0.34976971  0.77282743  0.01803697    -0.11300
C185        C  0.34702489  0.73273644  0.01747689     0.03400
C186        C  0.30973281  0.71553399  0.01495400    -0.10700
H187        H  0.25580545  0.79696931  0.01058520     0.09000
H188        H  0.37762030  0.78661758  0.02089842     0.06500
H189        H  0.30668593  0.68466050  0.01430541     0.06300
C190        C  0.02892455  0.73545534  0.72216949     0.03400
C191        C  0.03162615  0.73177315  0.76220058    -0.12800
C192        C  0.03575310  0.69598618  0.77973766     0.00900
C193        C  0.03770733  0.66296652  0.75731899    -0.11300
C194        C  0.03483152  0.66489093  0.71716163     0.03400
C195        C  0.03060538  0.70162126  0.69935540    -0.10700
H196        H  0.02998634  0.75712219  0.78011649     0.09000
H197        H  0.03956702  0.63531308  0.77149436     0.06500
H198        H  0.02786983  0.70374801  0.66842055     0.06300
C199        C  0.71963841  0.99556051  0.72224595     0.03400
C200        C  0.69700625  0.99659031  0.68828254    -0.12800
C201        C  0.71515518  0.99593021  0.65141966     0.00900
C202        C  0.75539501  0.99434237  0.64918077    -0.11300
C203        C  0.77769095  0.99298119  0.68246706     0.03400
C204        C  0.75962107  0.99253220  0.71844728    -0.10700
H205        H  0.66603634  0.99880512  0.69043156     0.09000
H206        H  0.76945332  0.99443600  0.62126325     0.06500
H207        H  0.77709880  0.99039737  0.74410190     0.06300
C208        C  0.79099704  0.71084036  0.01308624     0.03400
C209        C  0.78579866  0.74720622  0.99654553    -0.12800
C210        C  0.74905133  0.76218603  0.99090977     0.00900
C211        C  0.71690476  0.73984655  0.99974704    -0.11300
C212        C  0.72033136  0.70324877  0.01586887     0.03400
C213        C  0.75786255  0.68834949  0.02250680    -0.10700
H214        H  0.81071691  0.76467445  0.98935414     0.09000
H215        H  0.68854438  0.75178850  0.99525873     0.06500
H216        H  0.76119068  0.66046723  0.03577237     0.06300
C217        C  0.02245244  0.44802432  0.63113089     0.80500
N218        N  0.01091817  0.45492279  0.59447613    -0.77800
C219        C  0.00653750  0.49112054  0.58113732     0.82900
N220        N  0.01317141  0.52066452  0.60507745    -0.77800
C221        C  0.02409569  0.51544279  0.64188274     0.83000
N222        N  0.02908298  0.47863152  0.65538687    -0.79500
C223        C  0.96019415  0.50828986  0.36093251     0.80500
N224        N  0.96188153  0.50187723  0.39910486    -0.77800
C225        C  0.96690914  0.53065947  0.42440723     0.82900
N226        N  0.96984356  0.56716323  0.41106583    -0.77800
C227        C  0.96759735  0.57510964  0.37281259     0.83000
N228        N  0.96321136  0.54525091  0.34729676    -0.79500
C229        C  0.99362301  0.49949777  0.54134481     0.00100
C230        C  0.98258640  0.53734375  0.53247675    -0.11800
C231        C  0.97256386  0.54817719  0.49518499     0.02300
C232        C  0.97351721  0.52084028  0.46540025     0.00000
C233        C  0.98280834  0.48261562  0.47459349    -0.11700
C234        C  0.99276163  0.47173268  0.51188241     0.02200
H235        H  0.98191115  0.55902241  0.55475534     0.15200
H236        H  0.98346057  0.46093550  0.45231736     0.15200
C237        C  0.00286519  0.43210953  0.51822725     0.36800
C238        C  0.96107612  0.58740862  0.48887147     0.36700
N239        N  0.01080967  0.40028676  0.52303307    -0.43500
N240        N  0.95186828  0.61888051  0.48407116    -0.43500
C241        C  0.02644069  0.55125002  0.66561126     0.00100
C242        C  0.99787177  0.57920629  0.65937717    -0.11800
C243        C  0.00096136  0.61657564  0.67404843     0.02300
C244        C  0.03321134  0.62731908  0.69599371     0.00000
C245        C  0.06158764  0.59923967  0.70292148    -0.11700
C246        C  0.05862359  0.56175972  0.68778754     0.02200
H247        H  0.97296049  0.57194747  0.64215304     0.15200
H248        H  0.08632574  0.60671359  0.72027060     0.15200
C249        C  0.08980767  0.53546857  0.69391176     0.36800
C250        C  0.96987546  0.64290723  0.66712755     0.36700
N251        N  0.11516542  0.51477600  0.69895877    -0.43500
N252        N  0.94493059  0.66396499  0.66148660    -0.43500
C253        C  0.97069763  0.61638647  0.36015052     0.00100
C254        C  0.94437612  0.63132328  0.33364389    -0.11800
C255        C  0.94574734  0.67021374  0.32237276     0.02300
C256        C  0.97415825  0.69551867  0.33718308     0.00000
C257        C  0.99968020  0.68089961  0.36465858    -0.11700
C258        C  0.99807527  0.64206611  0.37630507     0.02200
H259        H  0.92265863  0.61253980  0.32157109     0.15200
H260        H  0.02260344  0.69920382  0.37517553     0.15200
C261        C  0.02682148  0.62870490  0.40290714     0.36800
C262        C  0.91878054  0.68325233  0.29380814     0.36700
N263        N  0.04993072  0.61795888  0.42413567    -0.43500
N264        N  0.89729880  0.69374306  0.27081398    -0.43500
C265        C  0.23584000  0.72371645  0.01011887     0.00100
C266        C  0.21823077  0.70788290  0.04310802    -0.11800
C267        C  0.17792056  0.70261680  0.04526270     0.02300
C268        C  0.15414585  0.71409823  0.01441495     0.00000
C269        C  0.17187372  0.72854550  0.98097385    -0.11700
C270        C  0.21211470  0.73269790  0.97837650     0.02200
H271        H  0.23575241  0.70141804  0.06797544     0.15200
H272        H  0.15419119  0.73650525  0.95664885     0.15200
C273        C  0.22857275  0.74595922  0.94252163     0.36800
C274        C  0.16131161  0.68765645  0.08038220     0.36700
N275        N  0.24160587  0.75589276  0.91344736    -0.43500
N276        N  0.14780625  0.67570264  0.10848092    -0.43500
C277        C  0.02981784  0.72497800  0.13498316     0.00100
C278        C  0.05360779  0.75195340  0.15317975    -0.11800
C279        C  0.04754322  0.76166865  0.19181276     0.02300
C280        C  0.01644944  0.74502574  0.21225453     0.00000
C281        C  0.99276772  0.71809513  0.19374954    -0.11700
C282        C  0.99938077  0.70773049  0.15564671     0.02200
H283        H  0.07699845  0.76530035  0.13719448     0.15200
H284        H  0.96844947  0.70553558  0.20898243     0.15200
C285        C  0.97307635  0.68105761  0.13777173     0.36800
C286        C  0.07412624  0.78777697  0.21001785     0.36700
N287        N  0.95198408  0.65976331  0.12341142    -0.43500
N288        N  0.09543155  0.80864247  0.22469562    -0.43500
C289        C  0.91398772  0.69826197  0.02522126     0.00100
C290        C  0.89327861  0.67195284  0.00243828    -0.11800
C291        C  0.85259632  0.67278092  0.00075107     0.02300
C292        C  0.83175450  0.70001800  0.02235072     0.00000
C293        C  0.85244771  0.72390545  0.04754353    -0.11700
C294        C  0.89284785  0.72317821  0.04921625     0.02200
H295        H  0.90892518  0.65202976  0.98441138     0.15200
H296        H  0.83695080  0.74466573  0.06472204     0.15200
C297        C  0.91200702  0.74822827  0.07608612     0.36800
C298        C  0.83297733  0.64692296  0.97508687     0.36700
N299        N  0.92741398  0.76802837  0.09783773    -0.43500
N300        N  0.81717071  0.62605756  0.95466025    -0.43500
C301        C  0.03104402  0.69177889  0.90274232     0.00100
C302        C  0.06315259  0.67684996  0.88355297    -0.11800
C303        C  0.06535509  0.67782550  0.84334135     0.02300
C304        C  0.03455208  0.69302497  0.82203591     0.00000
C305        C  0.00190408  0.70666483  0.84133740    -0.11700
C306        C  0.00006511  0.70647894  0.88142260     0.02200
H307        H  0.08734117  0.66637416  0.90003014     0.15200
H308        H  0.97805061  0.71806431  0.82498095     0.15200
C309        C  0.96622809  0.72170984  0.90008618     0.36800
C310        C  0.10047967  0.66579878  0.82477212     0.36700
N311        N  0.93917975  0.73396452  0.91506510    -0.43500
N312        N  0.12877324  0.65652999  0.80990592    -0.43500
C313        C  0.95951579  0.47326638  0.33639892     0.00100
C314        C  0.93016718  0.44591344  0.34299621    -0.11800
C315        C  0.93275804  0.40822610  0.32871963     0.02300
C316        C  0.96562814  0.39662283  0.30795401     0.00000
C317        C  0.99496355  0.42400409  0.30129401    -0.11700
C318        C  0.99231707  0.46171669  0.31549970     0.02200
H319        H  0.90537167  0.45385292  0.36021234     0.15200
H320        H  0.02000805  0.41588831  0.28453888     0.15200
C321        C  0.02455703  0.48745274  0.31018942     0.36800
C322        C  0.90081977  0.38226721  0.33471095     0.36700
N323        N  0.05040400  0.50814839  0.30622316    -0.43500
N324        N  0.87518046  0.36144720  0.33934188    -0.43500
C325        C  0.09378027  0.33733174  0.99279432     0.00100
C326        C  0.11124534  0.32359697  0.02636020    -0.11800
C327        C  0.15147333  0.32242636  0.02996219     0.02300
C328        C  0.17575125  0.33358304  0.99890195     0.00000
C329        C  0.15838443  0.35003152  0.96634993    -0.11700
C330        C  0.11784926  0.35248906  0.96335380     0.02200
H331        H  0.09329595  0.31305244  0.04976169     0.15200
H332        H  0.17631887  0.35885824  0.94227025     0.15200
C333        C  0.10174170  0.36848018  0.92875095     0.36800
C334        C  0.16726670  0.30845752  0.06566643     0.36700
N335        N  0.08910259  0.38162461  0.90099761    -0.43500
N336        N  0.17987564  0.29733785  0.09431594    -0.43500
C337        C  0.96132003  0.33679429  0.17986330     0.00100
C338        C  0.99158203  0.35615971  0.16107382    -0.11800
C339        C  0.99299110  0.35819794  0.12089321     0.02300
C340        C  0.96352211  0.34101403  0.09923865     0.00000
C341        C  0.93252321  0.32303266  0.11802192    -0.11700
C342        C  0.93106339  0.32103461  0.15812533     0.02200
H343        H  0.01495258  0.36818610  0.17778027     0.15200
H344        H  0.90997381  0.30959800  0.10123319     0.15200
C345        C  0.89840710  0.30263870  0.17637071     0.36800
C346        C  0.02628512  0.37524449  0.10247458     0.36700
N347        N  0.87224490  0.28801400  0.19111455    -0.43500
N348        N  0.05303272  0.38865078  0.08761793    -0.43500
C349        C  0.09304263  0.04685027  0.31831721     0.00100
C350        C  0.11368860  0.06754240  0.29034506    -0.11800
C351        C  0.15355260  0.06509373  0.28779919     0.02300
C352        C  0.17361241  0.04107984  0.31346263     0.00000
C353        C  0.15300306  0.02117580  0.34227700    -0.11700
C354        C  0.11294524  0.02396914  0.34497898     0.02200
H355        H  0.09845532  0.08545258  0.26997469     0.15200
H356        H  0.16815218  0.00262690  0.36209739     0.15200
C357        C  0.09289642  0.00136534  0.37368867     0.36800
C358        C  0.17295493  0.08790963  0.25879273     0.36700
N359        N  0.07679090  0.98321932  0.39664249    -0.43500
N360        N  0.18840995  0.10593528  0.23530930    -0.43500
C361        C  0.97791145  0.16635821  0.30073947     0.00100
C362        C  0.95386951  0.18926779  0.32404666    -0.11800
C363        C  0.95199954  0.22966671  0.31916973     0.02300
C364        C  0.97518689  0.24834158  0.29112505     0.00000
C365        C  0.00131816  0.22553627  0.27022600    -0.11700
C366        C  0.00246053  0.18543777  0.27422868     0.02200
H367        H  0.93505046  0.17541893  0.34487975     0.15200
H368        H  0.02005281  0.23910622  0.24909875     0.15200
C369        C  0.02919708  0.16462356  0.25031036     0.36800
C370        C  0.92440611  0.25085074  0.34160393     0.36700
N371        N  0.05053826  0.14806025  0.23095403    -0.43500
N372        N  0.90226923  0.26781673  0.35965858    -0.43500
C373        C  0.98772216  0.84327555  0.31243502     0.00100
C374        C  0.01952706  0.86721743  0.30382522    -0.11800
C375        C  0.01673859  0.90751540  0.30389403     0.02300
C376        C  0.98165056  0.92552468  0.31316613     0.00000
C377        C  0.95031988  0.90188788  0.32389494    -0.11700
C378        C  0.95294944  0.86130484  0.32329034     0.02200
H379        H  0.04656058  0.85422623  0.29543038     0.15200
H380        H  0.92316966  0.91506901  0.33120500     0.15200
C381        C  0.91890295  0.83885813  0.33140091     0.36800
C382        C  0.05046086  0.92993669  0.29416434     0.36700
N383        N  0.89162573  0.82075365  0.33784407    -0.43500
N384        N  0.07748186  0.94794061  0.28644604    -0.43500
C385        C  0.28439537  0.14738282  0.02655397     0.00100
C386        C  0.30357005  0.16644341  0.99657841    -0.11800
C387        C  0.29441741  0.20410281  0.98709273     0.02300
C388        C  0.26685094  0.22414374  0.00924756     0.00000
C389        C  0.24726739  0.20482153  0.03902805    -0.11700
C390        C  0.25537208  0.16645739  0.04739303     0.02200
H391        H  0.32465446  0.15125102  0.97936587     0.15200
H392        H  0.22608020  0.21987247  0.05619060     0.15200
C393        C  0.23415659  0.14758469  0.07789938     0.36800
C394        C  0.31256087  0.22070970  0.95339732     0.36700
N395        N  0.21703588  0.13240630  0.10223806    -0.43500
N396        N  0.32717162  0.23373367  0.92633832    -0.43500
C397        C  0.29052180  0.02288721  0.23269048     0.00100
C398        C  0.31279006  0.05241995  0.21594240    -0.11800
C399        C  0.31931333  0.05406107  0.17570889     0.02300
C400        C  0.30283705  0.02618081  0.15108027     0.00000
C401        C  0.28265217  0.99549687  0.16813657    -0.11700
C402        C  0.27702237  0.99329455  0.20822530     0.02200
H403        H  0.32310350  0.07556764  0.23396966     0.15200
H404        H  0.27070754  0.97325838  0.14994382     0.15200
C405        C  0.25623313  0.96067239  0.22359596     0.36800
C406        C  0.34060582  0.08621072  0.16017503     0.36700
N407        N  0.23957613  0.93454806  0.23593191    -0.43500
N408        N  0.35769432  0.11198613  0.14768873    -0.43500
C409        C  0.32441982  0.91795873  0.02163634     0.00100
C410        C  0.30753204  0.90071165  0.98952960    -0.11800
C411        C  0.30656610  0.86097883  0.98585962     0.02300
C412        C  0.32160307  0.83784522  0.01541404     0.00000
C413        C  0.34040706  0.85520975  0.04661149    -0.11700
C414        C  0.34218745  0.89515524  0.04976234     0.02200
H415        H  0.29464946  0.91844873  0.96742299     0.15200
H416        H  0.35256145  0.83753472  0.06914743     0.15200
C417        C  0.36023676  0.91197147  0.08303889     0.36800
C418        C  0.29093803  0.84489165  0.95105890     0.36700
N419        N  0.37475162  0.92549243  0.10966802    -0.43500
N420        N  0.27874870  0.83262309  0.92273010    -0.43500
C421        C  0.30906245  0.04009182  0.91005176     0.00100
C422        C  0.27870479  0.05917099  0.89179700    -0.11800
C423        C  0.27596482  0.06091672  0.85145753     0.02300
C424        C  0.30356499  0.04253843  0.82767371     0.00000
C425        C  0.33506273  0.02506193  0.84581507    -0.11700
C426        C  0.33807865  0.02382367  0.88643646     0.02200
H427        H  0.25662338  0.07260159  0.90921322     0.15200
H428        H  0.35623248  0.01038188  0.82832101     0.15200
C429        C  0.36976545  0.00318638  0.90307413     0.36800
C430        C  0.24376990  0.08118224  0.83517482     0.36700
N431        N  0.39512511  0.98651267  0.91638746    -0.43500
N432        N  0.21780938  0.09722052  0.82223565    -0.43500
C433        C  0.02413165  0.40676954  0.64368180     0.00100
C434        C  0.99344327  0.38216395  0.63357914    -0.11800
C435        C  0.99326617  0.34294375  0.64348525     0.02300
C436        C  0.02483660  0.32673019  0.66281564     0.00000
C437        C  0.05648352  0.35085009  0.67095541    -0.11700
C438        C  0.05630815  0.39031715  0.66183047     0.02200
H439        H  0.96866658  0.39398261  0.61902192     0.15200
H440        H  0.08047870  0.33924037  0.68693048     0.15200
C441        C  0.08967711  0.41301551  0.67121711     0.36800
C442        C  0.95903954  0.32055984  0.63628101     0.36700
N443        N  0.11683154  0.43066201  0.67882212    -0.43500
N444        N  0.93149831  0.30269638  0.63072231    -0.43500
C445        C  0.00246920  0.27918068  0.79308798     0.00100
C446        C  0.97161478  0.26224311  0.81306516    -0.11800
C447        C  0.96357640  0.27259015  0.85104137     0.02300
C448        C  0.98635508  0.30065886  0.86922506     0.00000
C449        C  0.01694705  0.31782548  0.84931154    -0.11700
C450        C  0.02561298  0.30693290  0.81169334     0.02200
H451        H  0.95348856  0.24131862  0.79880015     0.15200
H452        H  0.03496558  0.33870738  0.86370461     0.15200
C453        C  0.05928131  0.32352605  0.79345660     0.36800
C454        C  0.93128144  0.25480998  0.87051379     0.36700
N455        N  0.08620998  0.33681672  0.77882078    -0.43500
N456        N  0.90537639  0.24068852  0.88618058    -0.43500
C457        C  0.21019245  0.99853866  0.72832028     0.00100
C458        C  0.19196045  0.01955671  0.69910346    -0.11800
C459        C  0.15428116  0.01148487  0.68843791     0.02300
C460        C  0.13359732  0.98251237  0.70795210     0.00000
C461        C  0.15170365  0.96108484  0.73685268    -0.11700
C462        C  0.18999949  0.96843286  0.74673428     0.02200
H463        H  0.20693830  0.04316003  0.68508510     0.15200
H464        H  0.13580419  0.93869106  0.75181625     0.15200
C465        C  0.20803470  0.94427163  0.77509016     0.36800
C466        C  0.13690609  0.03504441  0.65907871     0.36700
N467        N  0.22257567  0.92491120  0.79777834    -0.43500
N468        N  0.12309509  0.05389156  0.63550472    -0.43500
C469        C  0.02440833  0.17968237  0.69250788     0.00100
C470        C  0.04822240  0.15735027  0.71637480    -0.11800
C471        C  0.04755673  0.11700613  0.71546720     0.02300
C472        C  0.02313747  0.09729332  0.68975238     0.00000
C473        C  0.00113437  0.11941223  0.66398842    -0.11700
C474        C  0.00125185  0.16006486  0.66547192     0.02200
H475        H  0.06657812  0.17161151  0.73707808     0.15200
H476        H  0.98240872  0.10490591  0.64381712     0.15200
C477        C  0.97546574  0.18083904  0.64076226     0.36800
C478        C  0.07260071  0.09643870  0.74121606     0.36700
N479        N  0.95475632  0.19757877  0.62101020    -0.43500
N480        N  0.09268321  0.07989330  0.76177553    -0.43500
C481        C  0.01698279  0.85672194  0.69629265     0.00100
C482        C  0.04762711  0.83582907  0.68000499    -0.11800
C483        C  0.05074453  0.79567498  0.68535074     0.02300
C484        C  0.02252639  0.77534953  0.70675385     0.00000
C485        C  0.99075260  0.79604497  0.72081341    -0.11700
C486        C  0.98783768  0.83599293  0.71588703     0.02200
H487        H  0.07024221  0.85115564  0.66472316     0.15200
H488        H  0.96879260  0.78103872  0.73735729     0.15200
C489        C  0.95439416  0.85513532  0.73112254     0.36800
C490        C  0.08441220  0.77636932  0.67091712     0.36700
N491        N  0.92750289  0.87052773  0.74309400    -0.43500
N492        N  0.11138840  0.76077734  0.65940676    -0.43500
C493        C  0.90071110  0.98335651  0.68087095     0.00100
C494        C  0.88308388  0.01236788  0.70235223    -0.11800
C495        C  0.84330638  0.01713691  0.70178115     0.02300
C496        C  0.82020567  0.99177693  0.68013561     0.00000
C497        C  0.83796917  0.96346586  0.65762937    -0.11700
C498        C  0.87801400  0.95918962  0.65771447     0.02200
H499        H  0.90057340  0.03158889  0.71953256     0.15200
H500        H  0.82043802  0.94385337  0.64098207     0.15200
C501        C  0.89488490  0.92853569  0.63566161     0.36800
C502        C  0.82709477  0.04873559  0.72309335     0.36700
N503        N  0.90847629  0.90393063  0.61806650    -0.43500
N504        N  0.81422857  0.07407183  0.74018818    -0.43500
C505        C  0.77262502  0.29650248  0.97673772     0.00100
C506        C  0.79646779  0.27437458  0.00068952    -0.11800
C507        C  0.83655975  0.27936083  0.00147656     0.02300
C508        C  0.85456209  0.30855372  0.97928768     0.00000
C509        C  0.83068238  0.33217718  0.95668516    -0.11700
C510        C  0.79036496  0.32597321  0.95469807     0.02200
H511        H  0.78371573  0.25183991  0.01822913     0.15200
H512        H  0.84371014  0.35458782  0.93922307     0.15200
C513        C  0.76837634  0.34852941  0.92794223     0.36800
C514        C  0.85837509  0.25350300  0.02532099     0.36700
N515        N  0.75077748  0.36649681  0.90631838    -0.43500
N516        N  0.87583014  0.23246955  0.04409290    -0.43500
C517        C  0.78370103  0.02852263  0.26838827     0.00100
C518        C  0.80159447  0.00390771  0.29474449    -0.11800
C519        C  0.83944293  0.01012018  0.30596282     0.02300
C520        C  0.86048716  0.04066189  0.28964605     0.00000
C521        C  0.84266807  0.06568558  0.26361887    -0.11700
C522        C  0.80410015  0.06031091  0.25353915     0.02200
H523        H  0.78595188  0.97946572  0.30638730     0.15200
H524        H  0.85885010  0.08947667  0.25140148     0.15200
C525        C  0.78564234  0.08841369  0.22943056     0.36800
C526        C  0.85636877  0.98391470  0.33318155     0.36700
N527        N  0.77059401  0.11111457  0.21050960    -0.43500
N528        N  0.86963232  0.96309774  0.35534106    -0.43500
C529        C  0.67232990  0.10792125  0.96433899     0.00100
C530        C  0.68625655  0.12733728  0.93174384    -0.11800
C531        C  0.69041553  0.16712531  0.93172998     0.02300
C532        C  0.67997825  0.18803206  0.96466692    -0.03000
C533        C  0.66421189  0.16883495  0.99669651    -0.11700
C534        C  0.66078829  0.12881359  0.99693625     0.02200
H535        H  0.69543600  0.11113492  0.90682852     0.15200
H536        H  0.65629549  0.18499541  0.02211856     0.15200
C537        C  0.64826881  0.10963444  0.03171169     0.36800
C538        C  0.70630149  0.18585154  0.89806977     0.36700
N539        N  0.63849969  0.09418455  0.05963032    -0.43500
N540        N  0.71916113  0.20100221  0.87124394    -0.43500
C541        C  0.68889607  0.98702897  0.08575727     0.00100
C542        C  0.65751974  0.00187202  0.10683629    -0.11800
C543        C  0.65778155  0.00338644  0.14762066     0.02300
C544        C  0.68953074  0.98912879  0.16847057     0.00000
C545        C  0.71909825  0.97123774  0.14724968    -0.11700
C546        C  0.71936275  0.97057810  0.10679576     0.02200
H547        H  0.63347307  0.01401729  0.09138987     0.15200
H548        H  0.74331134  0.95906918  0.16246236     0.15200
C549        C  0.75163919  0.95282487  0.08775017     0.36800
C550        C  0.62617548  0.02166595  0.16714756     0.36700
N551        N  0.77776549  0.93866651  0.07286866    -0.43500
N552        N  0.60073764  0.03620856  0.18283432    -0.43500
C553        C  0.69598591  0.99902667  0.84464191     0.00100
C554        C  0.67687993  0.97173014  0.82157464    -0.11800
C555        C  0.68137931  0.97154814  0.78103797     0.02300
C556        C  0.70441375  0.99971226  0.76263526     0.00000
C557        C  0.72074019  0.02866974  0.78559497    -0.11700
C558        C  0.71727013  0.02829228  0.82585502     0.02200
H559        H  0.66014379  0.94920628  0.83535763     0.15200
H560        H  0.73844751  0.05059688  0.77201272     0.15200
C561        C  0.73667354  0.05809264  0.84711256     0.36800
C562        C  0.66440622  0.94071453  0.75928707     0.36700
N563        N  0.75260478  0.08197165  0.86380845    -0.43500
N564        N  0.65084213  0.91596443  0.74180176    -0.43500
C565        C  0.72105276  0.87930948  0.96752478     0.00100
C566        C  0.74858748  0.87040134  0.99536965    -0.11800
C567        C  0.75959613  0.83268898  0.00211521     0.02300
C568        C  0.74324671  0.80282860  0.98018074     0.00000
C569        C  0.71695823  0.81195158  0.95089417    -0.11700
C570        C  0.70580629  0.84996673  0.94439201     0.02200
H571        H  0.76066394  0.89302625  0.01292590     0.15200
H572        H  0.70458622  0.78921682  0.93362880     0.15200
C573        C  0.67997923  0.85834694  0.91315250     0.36800
C574        C  0.78584813  0.82556831  0.03336924     0.36700
N575        N  0.65962307  0.86517241  0.88784543    -0.43500
N576        N  0.80700389  0.82017748  0.05836040    -0.43500
C577        C  0.35284077  0.05274617  0.60050858     0.00100
C578        C  0.37488074  0.03236490  0.62785128    -0.11800
C579        C  0.36435804  0.03066959  0.66708123     0.02300
C580        C  0.33129470  0.04982010  0.68019978     0.00000
C581        C  0.31096550  0.07251725  0.65347446    -0.11700
C582        C  0.32119086  0.07395419  0.61420775     0.02200
H583        H  0.39991323  0.01651975  0.61837540     0.15200
H584        H  0.28521758  0.08721762  0.66297270     0.15200
C585        C  0.29878309  0.09761626  0.58878064     0.36800
C586        C  0.38673995  0.00746522  0.69297215     0.36700
N587        N  0.28085262  0.11672693  0.56846215    -0.43500
N588        N  0.40480390  0.98907004  0.71383109    -0.43500
C589        C  0.33077302  0.05371567  0.45575847     0.00100
C590        C  0.34434200  0.07432139  0.42333105    -0.11800
C591        C  0.32859912  0.06912935  0.38648601     0.02300
C592        C  0.29874586  0.04225310  0.38085392     0.00000
C593        C  0.28456397  0.02220054  0.41351031    -0.11700
C594        C  0.29991135  0.02792803  0.45053854     0.02200
H595        H  0.36798301  0.09438472  0.42672585     0.15200
H596        H  0.26118925  0.00181372  0.41006992     0.15200
C597        C  0.28440326  0.00593373  0.48229234     0.36800
C598        C  0.34276359  0.09275818  0.35530032     0.36700
N599        N  0.27176422  0.98841702  0.50774805    -0.43500
N600        N  0.35404547  0.11177239  0.33030321    -0.43500
C601        C  0.66263657  0.99471663  0.53836358     0.00100
C602        C  0.67967155  0.02836448  0.55259347    -0.11800
C603        C  0.69551281  0.02967703  0.58977928     0.02300
C604        C  0.69373178  0.99714476  0.61418144     0.00000
C605        C  0.67701002  0.96337177  0.59982624    -0.11700
C606        C  0.66149358  0.96200020  0.56245359     0.02200
H607        H  0.67946868  0.05411977  0.53505356     0.15200
H608        H  0.67663464  0.93780673  0.61763602     0.15200
C609        C  0.64429717  0.92667111  0.54936927     0.36800
C610        C  0.71306745  0.06498781  0.60251134     0.36700
N611        N  0.63071190  0.89826276  0.53881113    -0.43500
N612        N  0.72718191  0.09331862  0.61259515    -0.43500
C613        C  0.65769343  0.98988405  0.31578246     0.00100
C614        C  0.67362200  0.96487121  0.34339467    -0.11800
C615        C  0.66344871  0.96682000  0.38264186     0.02300
C616        C  0.63603972  0.99375064  0.39536254     0.00000
C617        C  0.61796556  0.01672879  0.36724702    -0.11700
C618        C  0.62884014  0.01532580  0.32810205     0.02200
H619        H  0.69646010  0.94567392  0.33463427     0.15200
H620        H  0.59641431  0.03727904  0.37610405     0.15200
C621        C  0.61224432  0.04238549  0.30156138     0.36800
C622        C  0.68188994  0.94103848  0.40922342     0.36700
N623        N  0.59909861  0.06406623  0.28015915    -0.43500
N624        N  0.69664281  0.92041864  0.43062080    -0.43500
C625        C  0.53472063  0.02055934  0.49070986     0.00100
C626        C  0.51599961  0.04745156  0.46744942    -0.11800
C627        C  0.47841405  0.05885841  0.47584698     0.02300
C628        C  0.45888205  0.04285357  0.50788895     0.00000
C629        C  0.47777874  0.01632119  0.53133611    -0.11700
C630        C  0.51523541  0.00487962  0.52294663     0.02200
H631        H  0.53102395  0.06012302  0.44307572     0.15200
H632        H  0.46271645  0.00329746  0.55550894     0.15200
C633        C  0.53205288  0.97551174  0.54680980     0.36800
C634        C  0.46115825  0.08789791  0.45189452     0.36700
N635        N  0.54532022  0.95189876  0.56595739    -0.43500
N636        N  0.44754420  0.11130330  0.43273236    -0.43500
C637        C  0.62463013  0.31705550  0.97368553     0.00100
C638        C  0.59881199  0.31611817  0.94250320    -0.11800
C639        C  0.56130497  0.33095253  0.94567628     0.02300
C640        C  0.54847682  0.34650346  0.98082335     0.00000
C641        C  0.57425786  0.34727080  0.01197243    -0.11700
C642        C  0.61175138  0.33266347  0.00877275     0.02200
H643        H  0.60794370  0.30328310  0.91560751     0.15200
H644        H  0.56517998  0.36005124  0.03891377     0.15200
C645        C  0.63607100  0.33281228  0.04227286     0.36800
C646        C  0.53720865  0.33147680  0.91204326     0.36700
N647        N  0.65559039  0.33282864  0.06912330    -0.43500
N648        N  0.51810811  0.33203260  0.88490108    -0.43500
C649        C  0.40453253  0.37035746  0.98414019     0.00100
C650        C  0.37804399  0.38835984  0.00923163    -0.11800
C651        C  0.33869773  0.37821412  0.00998627     0.02300
C652        C  0.32446329  0.35032161  0.98444603     0.00000
C653        C  0.35043716  0.33445469  0.95750687    -0.11700
C654        C  0.38994302  0.34349024  0.95765282     0.02200
H655        H  0.38839533  0.40947595  0.02958390     0.15200
H656        H  0.34010104  0.31275414  0.93777883     0.15200
C657        C  0.41469149  0.32437610  0.93048176     0.36800
C658        C  0.31413110  0.39482467  0.03898133     0.36700
N659        N  0.43422615  0.30863983  0.90868136    -0.43500
N660        N  0.29442362  0.40807761  0.06227680    -0.43500
C661        C  0.60406077  0.65950137  0.02696861     0.00100
C662        C  0.63255378  0.63789812  0.00765591    -0.11800
C663        C  0.67145332  0.64944302  0.00669829     0.02300
C664        C  0.68310144  0.68322371  0.02552922     0.00000
C665        C  0.65519031  0.70337129  0.04702644    -0.11700
C666        C  0.61624178  0.69204522  0.04779510     0.02200
H667        H  0.62428600  0.61238221  0.99193948     0.15200
H668        H  0.66363235  0.72938738  0.06184730     0.15200
C669        C  0.58963946  0.71427893  0.07045153     0.36800
C670        C  0.69837410  0.62739678  0.98422786     0.36700
N671        N  0.56839281  0.73210149  0.08874033    -0.43500
N672        N  0.71997179  0.60963794  0.96629868    -0.43500
C673        C  0.38434100  0.71105201  0.01941142     0.00100
C674        C  0.41597833  0.72430250  0.99715542    -0.11800
C675        C  0.45307177  0.70902335  0.00135641     0.02300
C676        C  0.45948317  0.67924799  0.02788930     0.00000
C677        C  0.42793384  0.66555319  0.04976796    -0.11700
C678        C  0.39088565  0.68114832  0.04598246     0.02200
H679        H  0.41170010  0.74694343  0.97619897     0.15200
H680        H  0.43216310  0.64186317  0.06955214     0.15200
C681        C  0.36044553  0.66630352  0.07024112     0.36800
C682        C  0.48357169  0.72294470  0.97660848     0.36700
N683        N  0.33605225  0.65419303  0.08960248    -0.43500
N684        N  0.50806627  0.73402639  0.95677009    -0.43500
C685        C  0.49852034  0.47388026  0.00188383     0.00100
C686        C  0.47270942  0.50074195  0.98705664    -0.11800
C687        C  0.47959108  0.53992786  0.99082655     0.02300
C688        C  0.51271841  0.55290569  0.01049683     0.00000
C689        C  0.53877801  0.52609741  0.02494983    -0.11700
C690        C  0.53202400  0.48685600  0.02093109     0.02200
H691        H  0.44742827  0.49112635  0.97159995     0.15200
H692        H  0.56411687  0.53579526  0.04025799     0.15200
C693        C  0.55942348  0.46090731  0.03786780     0.36800
C694        C  0.45283829  0.56588304  0.97281887     0.36700
N695        N  0.58158342  0.44037410  0.05147709    -0.43500
N696        N  0.43140358  0.58660324  0.95834191    -0.43500
loop_ 
_geom_bond_atom_site_label_1 
_geom_bond_atom_site_label_2 
_geom_bond_distance 
_geom_bond_site_symmetry_2 
_ccdc_geom_bond_type 
C1            N2   1.378       .  A
C1            N6   1.359       .  A
C1          C661   1.508       .  S
N2            C3   1.374       .  A
C3            N4   1.347       .  A
C3          C676   1.492       .  S
N4            C5   1.346       .  A
C5            N6   1.355       .  A
C5          C688   1.472       .  S
C7            N8   1.349       .  A
C7           N12   1.376       .  A
C7          C640   1.490       .  S
N8            C9   1.347       .  A
C9           N10   1.354       .  A
C9          C685   1.473   1_556  S
N10          C11   1.358       .  A
C11          N12   1.379       .  A
C11         C649   1.505       .  S
C13          N14   1.360   1_565  A
C13          N18   1.377       .  A
C13         C616   1.507       .  S
N14          C15   1.356       .  A
C15          N16   1.350       .  A
C15         C625   1.473       .  S
N16          C17   1.349   1_545  A
C17          N18   1.373       .  A
C17         C601   1.489       .  S
C19          N20   1.351       .  A
C19          N24   1.377       .  A
C19         C589   1.499       .  S
N20          C21   1.347       .  A
C21          N22   1.354       .  A
C21         C628   1.471       .  S
N22          C23   1.358       .  A
C23          N24   1.379       .  A
C23         C577   1.507       .  S
O25         Cu33   1.967       .  S
O25          C35   1.271       .  A
O26         Cu33   1.967   1_565  S
O26          C36   1.272       .  A
O27         Cu33   2.040       .  S
O27          C37   1.283   1_545  A
O28         Cu33   2.047   1_564  S
O28          C38   1.284       .  A
O29         Cu34   2.050   1_554  S
O29          C38   1.281       .  A
O30         Cu34   2.044       .  S
O30          C37   1.281       .  A
O31         Cu34   2.028       .  S
O31          C36   1.281       .  A
O32         Cu34   2.028   1_545  S
O32          C35   1.280       .  A
Cu33        Cu34   2.371   1_545  S
C35         C529   1.462       .  S
C36         C565   1.469       .  S
C37         C553   1.504       .  S
C38         C541   1.510       .  S
C39         C544   1.517       .  S
C39          C40   1.433       .  A
C39          C44   1.410   1_565  A
C40          C41   1.429       .  A
C40          H45   1.082       .  S
C41         C613   1.500       .  S
C41          C42   1.392   1_565  A
C42          C43   1.386       .  A
C42          H46   1.086       .  S
C43         C517   1.474       .  S
C43          C44   1.396       .  A
C44          H47   1.084       .  S
C48         C505   1.517       .  S
C48          C49   1.428       .  A
C48          C53   1.408       .  A
C49          C50   1.428       .  A
C49          H54   1.082       .  S
C50         C637   1.497       .  S
C50          C51   1.397       .  A
C51          C52   1.388       .  A
C51          H55   1.085       .  S
C52         C532   1.472       .  S
C52          C53   1.397       .  A
C53          H56   1.084       .  S
O57         Cu65   2.052       .  S
O57          C67   1.281       .  A
O58         Cu65   2.054   1_545  S
O58          C68   1.282       .  A
O59         Cu65   2.004       .  S
O59          C69   1.278       .  A
O60         Cu65   2.014   1_655  S
O60          C70   1.278       .  A
O61         Cu66   1.985   1_655  S
O61          C70   1.275       .  A
O62         Cu66   1.981       .  S
O62          C69   1.273       .  A
O63         Cu66   2.046   1_545  S
O63          C68   1.283       .  A
O64         Cu66   2.045       .  S
O64          C67   1.283       .  A
Cu65        Cu66   2.368       .  S
C67         C481   1.506       .  S
C68         C472   1.509       .  S
C69         C460   1.466       .  S
C70         C493   1.471       .  S
C71         C469   1.516       .  S
C71          C72   1.433       .  A
C71          C76   1.409       .  A
C72          C73   1.429       .  A
C72          H77   1.082       .  S
C73         C436   1.499       .  S
C73          C74   1.391       .  A
C74          C75   1.388       .  A
C74          H78   1.086       .  S
C75         C445   1.476       .  S
C75          C76   1.398       .  A
C76          H79   1.084       .  S
C80         C424   1.512       .  S
C80          C81   1.431       .  A
C80          C85   1.408       .  A
C81          C82   1.428       .  A
C81          H86   1.082       .  S
C82         C580   1.502       .  S
C82          C83   1.393       .  A
C83          C84   1.389       .  A
C83          H87   1.086       .  S
C84         C457   1.481   1_545  S
C84          C85   1.398       .  A
C85          H88   1.083       .  S
O89         Cu97   2.011   1_565  S
O89          C99   1.277       .  A
O90         Cu97   2.006       .  S
O90         C100   1.279       .  A
O91         Cu97   2.051       .  S
O91         C101   1.282       .  A
O92         Cu97   2.049   1_556  S
O92         C102   1.282       .  A
O93         Cu98   2.043   1_556  S
O93         C102   1.283       .  A
O94         Cu98   2.043       .  S
O94         C101   1.282       .  A
O95         Cu98   1.981       .  S
O95         C100   1.273       .  A
O96         Cu98   1.975   1_565  S
O96          C99   1.273       .  A
Cu97        Cu98   2.368       .  S
C99         C409   1.462       .  S
C100        C385   1.466       .  S
C101        C400   1.506       .  S
C102        C421   1.508       .  S
O103       Cu111   2.041       .  S
O103        C113   1.283       .  A
O104       Cu111   2.056   1_565  S
O104        C114   1.284       .  A
O105       Cu111   1.978       .  S
O105        C115   1.272       .  A
O106       Cu111   1.964   1_455  S
O106        C116   1.272       .  A
O107       Cu112   2.018   1_455  S
O107        C116   1.279       .  A
O108       Cu112   2.006       .  S
O108        C115   1.278       .  A
O109       Cu112   2.055   1_565  S
O109        C114   1.282       .  A
O110       Cu112   2.061       .  S
O110        C113   1.283       .  A
Cu111      Cu112   2.371       .  S
C113        C361   1.513       .  S
C114        C376   1.508       .  S
C115        C520   1.462       .  S
C116        C349   1.468       .  S
O117       Cu125   2.029       .  S
O117        C127   1.281       .  A
O118       Cu125   2.042   1_455  S
O118        C128   1.282       .  A
O119       Cu125   1.972   1_554  S
O119        C129   1.272       .  A
O120       Cu125   1.977       .  S
O120        C130   1.273       .  A
O121       Cu126   2.010       .  S
O121        C130   1.278       .  A
O122       Cu126   2.021   1_554  S
O122        C129   1.279       .  A
O123       Cu126   2.051   1_455  S
O123        C128   1.281       .  A
O124       Cu126   2.060       .  S
O124        C127   1.283       .  A
Cu125      Cu126   2.372       .  S
C127        C508   1.512       .  S
C128        C325   1.502       .  S
C129        C340   1.462       .  S
C130        C448   1.462       .  S
C131        C364   1.519       .  S
C131        C132   1.407       .  A
C131        C136   1.430       .  A
C132        C133   1.397       .  A
C132        H137   1.084       .  S
C133        C337   1.474       .  S
C133        C134   1.390       .  A
C134        C135   1.398       .  A
C134        H138   1.085       .  S
C135        C316   1.500       .  S
C135        C136   1.431       .  A
C136        H139   1.082       .  S
C140        C397   1.510       .  S
C140        C141   1.402       .  A
C140        C145   1.425       .  A
C141        C142   1.398       .  A
C141        H146   1.084       .  S
C142        C352   1.481       .  S
C142        C143   1.393       .  A
C143        C144   1.400       .  A
C143        H147   1.084       .  S
C144        C592   1.508       .  S
C144        C145   1.430       .  A
C145        H148   1.082       .  S
C149        C328   1.509       .  S
C149        C150   1.430       .  A
C149        C154   1.408   1_556  A
C150        C151   1.428       .  A
C150        H155   1.082       .  S
C151        C652   1.504       .  S
C151        C152   1.395   1_556  A
C152        C153   1.390       .  A
C152        H156   1.085       .  S
C153        C388   1.481       .  S
C153        C154   1.397       .  A
C154        H157   1.084       .  S
O158       Cu166   1.981   1_556  S
O158        C168   1.274       .  A
O159       Cu166   1.985       .  S
O159        C169   1.273       .  A
O160       Cu166   2.045       .  S
O160        C170   1.282       .  A
O161       Cu166   2.045   1_655  S
O161        C171   1.283       .  A
O162       Cu167   2.046   1_655  S
O162        C171   1.281       .  A
O163       Cu167   2.040       .  S
O163        C170   1.280       .  A
O164       Cu167   2.008       .  S
O164        C169   1.279       .  A
O165       Cu167   2.012   1_556  S
O165        C168   1.278       .  A
Cu166      Cu167   2.369       .  S
C168        C301   1.464       .  S
C169        C277   1.466       .  S
C170        C268   1.500       .  S
C171        C289   1.504       .  S
C172        C373   1.517       .  S
C172        C173   1.434       .  A
C172        C177   1.408   1_655  A
C173        C174   1.430       .  A
C173        H178   1.082       .  S
C174        C256   1.506       .  S
C174        C175   1.394       .  A
C175        C176   1.392   1_655  A
C175        H179   1.085   1_655  S
C176        C280   1.481       .  S
C176        C177   1.399       .  A
C177        H180   1.084       .  S
C181        C265   1.505       .  S
C181        C182   1.402       .  A
C181        C186   1.424       .  A
C182        C183   1.398       .  A
C182        H187   1.085       .  S
C183        C412   1.475       .  S
C183        C184   1.391       .  A
C184        C185   1.402       .  A
C184        H188   1.084       .  S
C185        C673   1.508       .  S
C185        C186   1.429       .  A
C186        H189   1.082       .  S
C190        C484   1.508       .  S
C190        C191   1.401       .  A
C190        C195   1.425       .  A
C191        C192   1.396       .  A
C191        H196   1.085       .  S
C192        C304   1.474       .  S
C192        C193   1.395       .  A
C193        C194   1.402       .  A
C193        H197   1.085       .  S
C194        C244   1.506       .  S
C194        C195   1.430       .  A
C195        H198   1.083       .  S
C199        C556   1.506       .  S
C199        C200   1.423       .  A
C199        C204   1.401       .  A
C200        C201   1.426       .  A
C200        H205   1.083       .  S
C201        C604   1.498       .  S
C201        C202   1.403       .  A
C202        C203   1.397       .  A
C202        H206   1.084       .  S
C203        C496   1.481       .  S
C203        C204   1.397       .  A
C204        H207   1.085       .  S
C208        C292   1.505       .  S
C208        C209   1.405   1_554  A
C208        C213   1.427       .  A
C209        C210   1.398       .  A
C209        H214   1.084       .  S
C210        C568   1.480       .  S
C210        C211   1.392       .  A
C211        C212   1.399   1_556  A
C211        H215   1.085       .  S
C212        C664   1.504       .  S
C212        C213   1.428       .  A
C213        H216   1.082       .  S
C217        N218   1.359       .  A
C217        N222   1.382       .  A
C217        C433   1.504       .  S
N218        C219   1.354       .  A
C219        N220   1.346       .  A
C219        C229   1.486   1_455  S
N220        C221   1.349       .  A
C221        N222   1.378       .  A
C221        C241   1.501       .  S
C223        N224   1.347       .  A
C223        N228   1.376       .  A
C223        C313   1.492       .  S
N224        C225   1.348       .  A
C225        N226   1.357       .  A
C225        C232   1.484       .  S
N226        C227   1.360       .  A
C227        N228   1.379       .  A
C227        C253   1.508       .  S
C229        C230   1.411       .  A
C229        C234   1.412       .  A
C230        C231   1.396       .  A
C230        H235   1.084       .  S
C231        C232   1.410       .  A
C231        C238   1.445       .  S
C232        C233   1.410       .  A
C233        C234   1.396       .  A
C233        H236   1.084       .  S
C234        C237   1.445   1_655  S
C237        N239   1.158       .  T
C238        N240   1.157       .  T
C241        C242   1.413   1_455  A
C241        C246   1.410       .  A
C242        C243   1.405   1_655  A
C242        H247   1.085       .  S
C243        C244   1.410       .  A
C243        C250   1.444   1_455  S
C244        C245   1.416       .  A
C245        C246   1.414       .  A
C245        H248   1.084       .  S
C246        C249   1.441       .  S
C249        N251   1.157       .  T
C250        N252   1.157       .  T
C253        C254   1.404       .  A
C253        C258   1.423       .  A
C254        C255   1.412       .  A
C254        H259   1.084       .  S
C255        C256   1.421       .  A
C255        C262   1.444       .  S
C256        C257   1.404       .  A
C257        C258   1.414       .  A
C257        H260   1.084   1_655  S
C258        C261   1.444   1_655  S
C261        N263   1.157       .  T
C262        N264   1.157       .  T
C265        C266   1.407       .  A
C265        C270   1.417   1_554  A
C266        C267   1.415       .  A
C266        H271   1.084       .  S
C267        C268   1.416       .  A
C267        C274   1.443       .  S
C268        C269   1.404   1_554  A
C269        C270   1.409       .  A
C269        H272   1.085       .  S
C270        C273   1.443       .  S
C273        N275   1.157       .  T
C274        N276   1.157       .  T
C277        C278   1.404       .  A
C277        C282   1.407   1_455  A
C278        C279   1.401       .  A
C278        H283   1.085       .  S
C279        C280   1.412       .  A
C279        C286   1.444       .  S
C280        C281   1.406   1_455  A
C281        C282   1.392       .  A
C281        H284   1.085       .  S
C282        C285   1.445       .  S
C285        N287   1.157       .  T
C286        N288   1.157       .  T
C289        C290   1.411       .  A
C289        C294   1.413       .  A
C290        C291   1.417       .  A
C290        H295   1.084   1_554  S
C291        C292   1.414       .  A
C291        C298   1.442   1_554  S
C292        C293   1.409       .  A
C293        C294   1.407       .  A
C293        H296   1.084       .  S
C294        C297   1.444       .  S
C297        N299   1.157       .  T
C298        N300   1.157       .  T
C301        C302   1.401       .  A
C301        C306   1.409       .  A
C302        C303   1.400       .  A
C302        H307   1.085       .  S
C303        C304   1.411       .  A
C303        C310   1.444       .  S
C304        C305   1.402       .  A
C305        C306   1.395       .  A
C305        H308   1.085   1_455  S
C306        C309   1.445   1_455  S
C309        N311   1.157       .  T
C310        N312   1.157       .  T
C313        C314   1.411       .  A
C313        C318   1.411       .  A
C314        C315   1.410       .  A
C314        H319   1.085       .  S
C315        C316   1.411       .  A
C315        C322   1.443       .  S
C316        C317   1.411       .  A
C317        C318   1.410       .  A
C317        H320   1.085   1_655  S
C318        C321   1.443   1_655  S
C321        N323   1.157       .  T
C322        N324   1.157       .  T
C325        C326   1.403   1_556  A
C325        C330   1.418       .  A
C326        C327   1.406       .  A
C326        H331   1.085       .  S
C327        C328   1.419   1_554  A
C327        C334   1.445       .  S
C328        C329   1.408       .  A
C329        C330   1.417       .  A
C329        H332   1.084       .  S
C330        C333   1.442       .  S
C333        N335   1.157       .  T
C334        N336   1.157       .  T
C337        C338   1.405       .  A
C337        C342   1.409       .  A
C338        C339   1.399       .  A
C338        H343   1.085   1_655  S
C339        C340   1.407       .  A
C339        C346   1.444   1_655  S
C340        C341   1.402       .  A
C341        C342   1.396       .  A
C341        H344   1.085       .  S
C342        C345   1.444       .  S
C345        N347   1.157       .  T
C346        N348   1.157       .  T
C349        C350   1.402       .  A
C349        C354   1.409       .  A
C350        C351   1.392       .  A
C350        H355   1.085       .  S
C351        C352   1.412       .  A
C351        C358   1.445       .  S
C352        C353   1.408       .  A
C353        C354   1.400       .  A
C353        H356   1.085       .  S
C354        C357   1.444       .  S
C357        N359   1.157   1_545  T
C358        N360   1.157       .  T
C361        C362   1.414       .  A
C361        C366   1.415   1_655  A
C362        C363   1.421       .  A
C362        H367   1.084       .  S
C363        C364   1.417       .  A
C363        C370   1.442       .  S
C364        C365   1.411   1_655  A
C365        C366   1.406       .  A
C365        H368   1.085       .  S
C366        C369   1.444       .  S
C369        N371   1.157       .  T
C370        N372   1.157       .  T
C373        C374   1.413   1_655  A
C373        C378   1.416       .  A
C374        C375   1.410       .  A
C374        H379   1.085       .  S
C375        C376   1.412   1_455  A
C375        C382   1.444       .  S
C376        C377   1.411       .  A
C377        C378   1.420       .  A
C377        H380   1.082       .  S
C378        C381   1.442       .  S
C381        N383   1.157       .  T
C382        N384   1.157       .  T
C385        C386   1.399   1_554  A
C385        C390   1.410       .  A
C386        C387   1.393       .  A
C386        H391   1.086       .  S
C387        C388   1.416   1_556  A
C387        C394   1.446       .  S
C388        C389   1.405       .  A
C389        C390   1.399       .  A
C389        H392   1.085       .  S
C390        C393   1.444       .  S
C393        N395   1.157       .  T
C394        N396   1.157       .  T
C397        C398   1.408       .  A
C397        C402   1.419   1_545  A
C398        C399   1.417       .  A
C398        H403   1.084       .  S
C399        C400   1.418       .  A
C399        C406   1.443       .  S
C400        C401   1.405   1_545  A
C401        C402   1.408       .  A
C401        H404   1.085       .  S
C402        C405   1.445       .  S
C405        N407   1.157       .  T
C406        N408   1.157       .  T
C409        C410   1.400   1_554  A
C409        C414   1.407       .  A
C410        C411   1.393       .  A
C410        H415   1.086       .  S
C411        C412   1.409   1_556  A
C411        C418   1.443       .  S
C412        C413   1.406       .  A
C413        C414   1.399       .  A
C413        H416   1.085       .  S
C414        C417   1.444       .  S
C417        N419   1.157       .  T
C418        N420   1.157       .  T
C421        C422   1.405       .  A
C421        C426   1.419       .  A
C422        C423   1.407       .  A
C422        H427   1.085       .  S
C423        C424   1.421       .  A
C423        C430   1.445       .  S
C424        C425   1.408       .  A
C425        C426   1.417       .  A
C425        H428   1.084       .  S
C426        C429   1.443       .  S
C429        N431   1.157   1_545  T
C430        N432   1.157       .  T
C433        C434   1.412   1_455  A
C433        C438   1.412       .  A
C434        C435   1.410       .  A
C434        H439   1.085       .  S
C435        C436   1.411   1_655  A
C435        C442   1.443       .  S
C436        C437   1.412       .  A
C437        C438   1.412       .  A
C437        H440   1.085       .  S
C438        C441   1.441       .  S
C441        N443   1.157       .  T
C442        N444   1.157       .  T
C445        C446   1.402   1_455  A
C445        C450   1.416       .  A
C446        C447   1.397       .  A
C446        H451   1.085       .  S
C447        C448   1.409       .  A
C447        C454   1.444       .  S
C448        C449   1.397   1_655  A
C449        C450   1.395       .  A
C449        H452   1.084       .  S
C450        C453   1.446       .  S
C453        N455   1.157       .  T
C454        N456   1.157       .  T
C457        C458   1.407   1_565  A
C457        C462   1.410       .  A
C458        C459   1.391       .  A
C458        H463   1.085       .  S
C459        C460   1.408   1_545  A
C459        C466   1.446       .  S
C460        C461   1.405       .  A
C461        C462   1.400       .  A
C461        H464   1.085       .  S
C462        C465   1.444       .  S
C465        N467   1.157       .  T
C466        N468   1.157       .  T
C469        C470   1.412       .  A
C469        C474   1.416       .  A
C470        C471   1.408       .  A
C470        H475   1.085       .  S
C471        C472   1.414       .  A
C471        C478   1.445       .  S
C472        C473   1.412       .  A
C473        C474   1.419       .  A
C473        H476   1.084   1_455  S
C474        C477   1.442   1_455  S
C477        N479   1.157       .  T
C478        N480   1.157       .  T
C481        C482   1.412       .  A
C481        C486   1.413   1_455  A
C482        C483   1.418       .  A
C482        H487   1.084       .  S
C483        C484   1.415       .  A
C483        C490   1.443       .  S
C484        C485   1.410   1_455  A
C485        C486   1.408       .  A
C485        H488   1.085       .  S
C486        C489   1.444       .  S
C489        N491   1.157       .  T
C490        N492   1.157       .  T
C493        C494   1.402   1_565  A
C493        C498   1.409       .  A
C494        C495   1.395       .  A
C494        H499   1.085       .  S
C495        C496   1.413   1_545  A
C495        C502   1.446       .  S
C496        C497   1.406       .  A
C497        C498   1.402       .  A
C497        H500   1.085       .  S
C498        C501   1.443       .  S
C501        N503   1.157       .  T
C502        N504   1.157       .  T
C505        C506   1.410   1_556  A
C505        C510   1.417       .  A
C506        C507   1.405       .  A
C506        H511   1.085       .  S
C507        C508   1.417   1_554  A
C507        C514   1.445       .  S
C508        C509   1.413       .  A
C509        C510   1.420       .  A
C509        H512   1.084       .  S
C510        C513   1.442       .  S
C513        N515   1.157       .  T
C514        N516   1.157       .  T
C517        C518   1.404       .  A
C517        C522   1.408       .  A
C518        C519   1.391       .  A
C518        H523   1.085   1_545  S
C519        C520   1.406       .  A
C519        C526   1.444   1_545  S
C520        C521   1.405       .  A
C521        C522   1.400       .  A
C521        H524   1.085       .  S
C522        C525   1.444       .  S
C525        N527   1.157       .  T
C526        N528   1.157       .  T
C529        C530   1.401       .  A
C529        C534   1.407       .  A
C530        C531   1.395       .  A
C530        H535   1.083       .  S
C531        C532   1.407       .  A
C531        C538   1.444       .  S
C532        C533   1.405       .  A
C533        C534   1.401       .  A
C533        H536   1.085   1_556  S
C534        C537   1.444   1_556  S
C537        N539   1.157       .  T
C538        N540   1.157       .  T
C541        C542   1.413   1_565  A
C541        C546   1.414       .  A
C542        C543   1.419       .  A
C542        H547   1.084       .  S
C543        C544   1.416   1_545  A
C543        C550   1.442       .  S
C544        C545   1.412       .  A
C545        C546   1.407       .  A
C545        H548   1.085       .  S
C546        C549   1.444       .  S
C549        N551   1.157       .  T
C550        N552   1.157       .  T
C553        C554   1.412       .  A
C553        C558   1.414   1_565  A
C554        C555   1.417       .  A
C554        H559   1.084       .  S
C555        C556   1.414       .  A
C555        C562   1.442       .  S
C556        C557   1.408   1_565  A
C557        C558   1.404       .  A
C557        H560   1.085       .  S
C558        C561   1.444       .  S
C561        N563   1.157       .  T
C562        N564   1.157       .  T
C565        C566   1.401       .  A
C565        C570   1.407       .  A
C566        C567   1.392   1_556  A
C566        H571   1.083   1_556  S
C567        C568   1.412   1_554  A
C567        C574   1.445       .  S
C568        C569   1.409       .  A
C569        C570   1.402       .  A
C569        H572   1.085       .  S
C570        C573   1.443       .  S
C573        N575   1.157       .  T
C574        N576   1.157       .  T
C577        C578   1.417       .  A
C577        C582   1.411       .  A
C578        C579   1.411       .  A
C578        H583   1.084       .  S
C579        C580   1.408       .  A
C579        C586   1.443       .  S
C580        C581   1.414       .  A
C581        C582   1.409       .  A
C581        H584   1.085       .  S
C582        C585   1.443       .  S
C585        N587   1.157       .  T
C586        N588   1.157   1_545  T
C589        C590   1.413       .  A
C589        C594   1.409       .  A
C590        C591   1.408       .  A
C590        H595   1.084       .  S
C591        C592   1.410       .  A
C591        C598   1.443       .  S
C592        C593   1.417       .  A
C593        C594   1.411       .  A
C593        H596   1.085       .  S
C594        C597   1.443       .  S
C597        N599   1.157   1_545  T
C598        N600   1.157       .  T
C601        C602   1.404   1_565  A
C601        C606   1.414       .  A
C602        C603   1.409       .  A
C602        H607   1.085       .  S
C603        C604   1.416   1_545  A
C603        C610   1.444       .  S
C604        C605   1.405       .  A
C605        C606   1.410       .  A
C605        H608   1.084       .  S
C606        C609   1.443       .  S
C609        N611   1.157       .  T
C610        N612   1.157       .  T
C613        C614   1.413       .  A
C613        C618   1.409   1_565  A
C614        C615   1.410       .  A
C614        H619   1.085       .  S
C615        C616   1.413       .  A
C615        C622   1.443       .  S
C616        C617   1.415   1_565  A
C617        C618   1.412       .  A
C617        H620   1.084       .  S
C618        C621   1.443       .  S
C621        N623   1.157       .  T
C622        N624   1.157       .  T
C625        C626   1.402       .  A
C625        C630   1.414       .  A
C626        C627   1.398       .  A
C626        H631   1.085       .  S
C627        C628   1.414       .  A
C627        C634   1.445       .  S
C628        C629   1.401       .  A
C629        C630   1.394       .  A
C629        H632   1.085       .  S
C630        C633   1.445   1_545  S
C633        N635   1.157       .  T
C634        N636   1.157       .  T
C637        C638   1.412       .  A
C637        C642   1.409   1_556  A
C638        C639   1.410       .  A
C638        H643   1.085       .  S
C639        C640   1.410       .  A
C639        C646   1.442       .  S
C640        C641   1.410   1_556  A
C641        C642   1.407       .  A
C641        H644   1.085       .  S
C642        C645   1.443       .  S
C645        N647   1.157       .  T
C646        N648   1.157       .  T
C649        C650   1.416   1_556  A
C649        C654   1.410       .  A
C650        C651   1.412       .  A
C650        H655   1.084       .  S
C651        C652   1.409   1_554  A
C651        C658   1.443       .  S
C652        C653   1.414       .  A
C653        C654   1.408       .  A
C653        H656   1.084       .  S
C654        C657   1.442       .  S
C657        N659   1.157       .  T
C658        N660   1.157       .  T
C661        C662   1.416       .  A
C661        C666   1.413       .  A
C662        C663   1.410       .  A
C662        H667   1.084   1_554  S
C663        C664   1.408       .  A
C663        C670   1.443   1_554  S
C664        C665   1.414       .  A
C665        C666   1.409       .  A
C665        H668   1.085       .  S
C666        C669   1.443       .  S
C669        N671   1.157       .  T
C670        N672   1.157       .  T
C673        C674   1.416   1_554  A
C673        C678   1.412       .  A
C674        C675   1.407   1_556  A
C674        H679   1.084       .  S
C675        C676   1.407       .  A
C675        C682   1.443   1_554  S
C676        C677   1.412       .  A
C677        C678   1.408       .  A
C677        H680   1.085       .  S
C678        C681   1.443       .  S
C681        N683   1.157       .  T
C682        N684   1.157       .  T
C685        C686   1.401   1_554  A
C685        C690   1.416       .  A
C686        C687   1.393       .  A
C686        H691   1.085       .  S
C687        C688   1.416   1_556  A
C687        C694   1.446       .  S
C688        C689   1.400       .  A
C689        C690   1.395       .  A
C689        H692   1.085       .  S
C690        C693   1.445       .  S
C693        N695   1.157       .  T
C694        N696   1.158       .  T
