geometry optimzed in LAMMPS
_audit_creation_date              2020-11-30 
_audit_creation_method            'lammps2cif' 
_symmetry_space_group_name_H-M    'P1' 
_symmetry_Int_Tables_number       1 
_symmetry_cell_setting            triclinic 
loop_ 
_symmetry_equiv_pos_as_xyz 
  x,y,z 
_cell_length_a                    32.22787741 
_cell_length_b                    32.00719587502983 
_cell_length_c                    31.82676448466707 
_cell_angle_alpha                 89.73606483859207 
_cell_angle_beta                  89.52006909521411 
_cell_angle_gamma                 90.23926677876273 
loop_ 
_atom_site_label 
_atom_site_type_symbol 
_atom_site_fract_x 
_atom_site_fract_y 
_atom_site_fract_z 
_atom_site_charge 
N1          N  0.58039494  0.63474476  0.99099929    -0.27300
N2          N  0.56363214  0.65285404  0.02429470    -0.35200
C3          C  0.59456286  0.66329353  0.05080697     0.01000
C4          C  0.63238232  0.65216622  0.03266418     0.07000
C5          C  0.62177422  0.63416089  0.99491581    -0.06100
H6          H  0.58971274  0.67437675  0.08252285     0.07700
H7          H  0.64224141  0.61642877  0.97468050     0.08900
Cu8        Cu  0.49869240  0.65667138  0.03304299     0.44200
Cu9        Cu  0.54823952  0.59815027  0.94892885     0.42000
Cu10       Cu  0.44046417  0.60786530  0.94737366     0.43900
N11         N  0.43341851  0.65811915  0.02737962    -0.34700
N12         N  0.41380883  0.64437815  0.99373506    -0.29000
C13         C  0.37269307  0.64673343  0.00025979    -0.05100
C14         C  0.36532816  0.66201024  0.04006792     0.07100
C15         C  0.40463265  0.66844603  0.05665471     0.00900
H16         H  0.34987928  0.63257453  0.97995939     0.08600
H17         H  0.41169655  0.67644675  0.08880611     0.07700
N18         N  0.47019927  0.55700832  0.92091008    -0.36200
N19         N  0.51089036  0.55310496  0.92212742    -0.28300
C20         C  0.52120051  0.51384064  0.91149230    -0.03600
C21         C  0.48502287  0.49180030  0.90325268     0.05000
C22         C  0.45336724  0.52033563  0.90929252     0.03100
H23         H  0.55231736  0.50151814  0.91339713     0.08200
H24         H  0.42040826  0.51375524  0.90926527     0.07100
N25         N  0.57594120  0.21110177  0.97315056    -0.27300
N26         N  0.55724047  0.19517961  0.00680390    -0.35200
C27         C  0.58685576  0.18402443  0.03449439     0.01000
C28         C  0.62582226  0.19235597  0.01699615     0.07000
C29         C  0.61719509  0.20926777  0.97806952    -0.06100
H30         H  0.58053630  0.17520176  0.06677889     0.07700
H31         H  0.63909653  0.22593026  0.95813277     0.08900
Cu32       Cu  0.49205676  0.19679339  0.01596748     0.44200
Cu33       Cu  0.54873856  0.25226291  0.93152800     0.42000
Cu34       Cu  0.44192696  0.26347717  0.93900354     0.43900
N35         N  0.42687781  0.20339288  0.01114215    -0.34700
N36         N  0.40980362  0.22498058  0.98029171    -0.29000
C37         C  0.36863080  0.22675166  0.98639711    -0.05100
C38         C  0.35840534  0.20562157  0.02295185     0.07100
C39         C  0.39631948  0.19160446  0.03823670     0.00900
H40         H  0.34820338  0.24666982  0.96849062     0.08600
H41         H  0.40161357  0.17725702  0.06855057     0.07700
N42         N  0.47916223  0.31063907  0.91481946    -0.36200
N43         N  0.51976337  0.30646470  0.91199341    -0.28300
C44         C  0.53692419  0.34397761  0.90339958    -0.03600
C45         C  0.50551569  0.37324038  0.90063155     0.05000
C46         C  0.46918341  0.35086265  0.90798789     0.03100
H47         H  0.56995715  0.35016896  0.90277266     0.08200
H48         H  0.43824458  0.36328420  0.91186514     0.07100
N49         N  0.73212164  0.85770481  0.60025288    -0.27300
N50         N  0.76167810  0.88590925  0.59505445    -0.35200
C51         C  0.76972069  0.90332042  0.63277455     0.01000
C52         C  0.74462837  0.88420993  0.66325217     0.07000
C53         C  0.72230503  0.85474477  0.64110453    -0.06100
H54         H  0.78684744  0.93215669  0.63627231     0.07700
H55         H  0.69413367  0.83973485  0.65232341     0.08900
Cu56       Cu  0.77527643  0.90811943  0.53438130     0.44200
Cu57       Cu  0.68573486  0.85230851  0.55671166     0.42000
Cu58       Cu  0.68458268  0.95914216  0.51414234     0.43900
N59         N  0.76212308  0.93085107  0.47409650    -0.34700
N60         N  0.73082728  0.95681794  0.46961224    -0.29000
C61         C  0.72203782  0.96091168  0.42878076    -0.05100
C62         C  0.74767742  0.93503901  0.40568672     0.07100
C63         C  0.77293467  0.91628926  0.43571653     0.00900
H64         H  0.69347907  0.97453114  0.41757126     0.08600
H65         H  0.79278093  0.88957194  0.43099722     0.07700
N66         N  0.63247185  0.92464794  0.52982657    -0.36200
N67         N  0.63262405  0.88500182  0.54179450    -0.28300
C68         C  0.59323690  0.87173080  0.54652967    -0.03600
C69         C  0.56720050  0.90434850  0.53645251     0.05000
C70         C  0.59313600  0.93737937  0.52580444     0.03100
H71         H  0.58425707  0.84083009  0.55718673     0.08200
H72         H  0.58448574  0.96833492  0.51547324     0.07100
N73         N  0.28300117  0.89367929  0.58866731    -0.27300
N74         N  0.25425382  0.92235496  0.58316547    -0.35200
C75         C  0.24273542  0.93694331  0.62134496     0.01000
C76         C  0.26446898  0.91534000  0.65230587     0.07000
C77         C  0.28885320  0.88770352  0.62985673    -0.06100
H78         H  0.22529215  0.96539045  0.62572787     0.07700
H79         H  0.31566761  0.87168341  0.64222036     0.08900
Cu80       Cu  0.24495573  0.94766830  0.52290110     0.44200
Cu81       Cu  0.33239248  0.88893380  0.54762974     0.42000
Cu82       Cu  0.33869876  0.99574505  0.50648704     0.43900
N83         N  0.26087183  0.97344677  0.46410147    -0.34700
N84         N  0.29315287  0.99876934  0.46185178    -0.29000
C85         C  0.30323373  0.00552844  0.42153646    -0.05100
C86         C  0.27792464  0.98149910  0.39625067     0.07100
C87         C  0.25084016  0.96174154  0.42462283     0.00900
H88         H  0.33233648  0.01970289  0.41185132     0.08600
H89         H  0.23015281  0.93606516  0.41804436     0.07700
N90         N  0.38924460  0.95975493  0.52246251    -0.36200
N91         N  0.38729819  0.92000207  0.53395714    -0.28300
C92         C  0.42605224  0.90533051  0.53835698    -0.03600
C93         C  0.45350269  0.93736730  0.52850682     0.05000
C94         C  0.42915854  0.97121786  0.51854439     0.03100
H95         H  0.43339542  0.87386372  0.54822486     0.08200
H96         H  0.43966932  0.00180483  0.50837314     0.07100
O97         O  0.75866551  0.85987738  0.02977774    -0.73000
O98         O  0.75586865  0.98764423  0.02891018    -0.74000
O99         O  0.76165735  0.92376588  0.09292140    -0.62600
O100        O  0.75556106  0.92404486  0.96693871    -0.71000
O101        O  0.68689549  0.91958446  0.97054988    -0.70500
O102        O  0.69295063  0.92465494  0.09701641    -0.61800
O103        O  0.68716670  0.98368091  0.03141798    -0.74300
O104        O  0.69010262  0.86037864  0.03662087    -0.73100
Cu105      Cu  0.76048663  0.92389276  0.02948598     1.04600
Cu106      Cu  0.68703499  0.92200213  0.03395449     1.04300
C107        C  0.72405400  0.84030987  0.03406839     0.93200
C108        C  0.72029728  0.00547721  0.02991220     0.92400
C109        C  0.72836872  0.92461869  0.11498255     0.84500
C110        C  0.72048178  0.92158252  0.94883895     0.90800
N111        N  0.75470656  0.92261004  0.32733409    -0.03500
C112        C  0.72611281  0.91547841  0.29681267    -0.00900
C113        C  0.68845543  0.90470148  0.31518063    -0.23800
C114        C  0.69369175  0.90620950  0.35783434    -0.24000
C115        C  0.73445912  0.91766952  0.36471420    -0.01000
H116        H  0.65962356  0.89811739  0.29926898     0.12800
H117        H  0.66948771  0.90234395  0.38133721     0.12800
N118        N  0.70025430  0.18345595  0.03970339    -0.03500
C119        C  0.72971103  0.21163187  0.05156132    -0.00900
C120        C  0.71145560  0.24981406  0.05974446    -0.23800
C121        C  0.66977345  0.24525253  0.05258678    -0.24000
C122        C  0.66354663  0.20443608  0.04022087    -0.01000
H123        H  0.72713573  0.27855860  0.06800119     0.12800
H124        H  0.64696751  0.26998118  0.05292130     0.12800
O125        O  0.94076272  0.90700440  0.73048040    -0.73000
O126        O  0.06288831  0.90821582  0.72624070    -0.74000
O127        O  0.00247303  0.84403067  0.72751758    -0.62600
O128        O  0.00250082  0.96998696  0.73202509    -0.71000
O129        O  0.00072896  0.96694430  0.80174271    -0.70500
O130        O  0.00660415  0.84196043  0.79705325    -0.61800
O131        O  0.06661811  0.90720301  0.79588443    -0.74300
O132        O  0.93979265  0.90118469  0.79998404    -0.73100
Cu133      Cu  0.00190441  0.90724718  0.72680190     1.04600
Cu134      Cu  0.00335182  0.90413089  0.80128101     1.04300
C135        C  0.92060861  0.90426839  0.76495511     0.93200
C136        C  0.08425689  0.90910457  0.75963155     0.92400
C137        C  0.00594377  0.82322458  0.76177937     0.84500
C138        C  0.00226873  0.98820226  0.76773242     0.90800
N139        N  0.99843047  0.19789793  0.79034055    -0.03500
C140        C  0.01243228  0.16825658  0.76307109    -0.00900
C141        C  0.02092298  0.18622565  0.72425337    -0.23800
C142        C  0.01141989  0.22776315  0.72733630    -0.24000
C143        C  0.99767145  0.23429170  0.76792752    -0.01000
H144        H  0.03023932  0.17039182  0.69574991     0.12800
H145        H  0.01169883  0.25026799  0.70184200     0.12800
N146        N  0.25861551  0.92896604  0.73076136    -0.03500
C147        C  0.28748352  0.93683872  0.76067579    -0.00900
C148        C  0.32552472  0.94519779  0.74206945    -0.23800
C149        C  0.31999448  0.94229606  0.69950206    -0.24000
C150        C  0.27872933  0.93216019  0.69311966    -0.01000
H151        H  0.35451355  0.95150253  0.75780602     0.12800
H152        H  0.34415235  0.94470178  0.67576424     0.12800
O153        O  0.24047809  0.93254116  0.96199386    -0.73000
O154        O  0.24312041  0.93280923  0.08919156    -0.74000
O155        O  0.23954779  0.99527865  0.02567331    -0.62600
O156        O  0.24407071  0.86920302  0.02588320    -0.71000
O157        O  0.31275990  0.87323159  0.02839679    -0.70500
O158        O  0.30808213  0.99785520  0.01821090    -0.61800
O159        O  0.31149380  0.94063748  0.08556893    -0.74300
O160        O  0.30931043  0.93086641  0.96089945    -0.73100
Cu161      Cu  0.23925506  0.93225061  0.02562810     1.04600
Cu162      Cu  0.31270151  0.93562226  0.02310292     1.04300
C163        C  0.27479601  0.93125160  0.94154081     0.93200
C164        C  0.27800679  0.93849487  0.10723859     0.92400
C165        C  0.27321430  0.01631186  0.02189261     0.84500
C166        C  0.27944306  0.85145104  0.02852111     0.90800
O167        O  0.07279774  0.96425845  0.27519300    -0.73000
O168        O  0.94773271  0.95666149  0.27888732    -0.74000
O169        O  0.00672944  0.02314851  0.28109159    -0.62600
O170        O  0.01371851  0.89702326  0.27330631    -0.71000
O171        O  0.01642225  0.89364392  0.34297302    -0.70500
O172        O  0.00978723  0.01759525  0.35058281    -0.61800
O173        O  0.95043526  0.95109114  0.34840714    -0.74300
O174        O  0.07399930  0.95852362  0.34477315    -0.73100
Cu175      Cu  0.01005634  0.96049910  0.27453684     1.04600
Cu176      Cu  0.01247595  0.95524162  0.34898640     1.04300
C177        C  0.09295313  0.96185290  0.30957259     0.93200
C178        C  0.92959311  0.95190916  0.31444323     0.92400
C179        C  0.00818849  0.04004778  0.31738164     0.84500
C180        C  0.01724719  0.87577494  0.30726579     0.90800
O181        O  0.99148058  0.16485845  0.99439340    -0.73000
O182        O  0.99464857  0.18309567  0.12047981    -0.74000
O183        O  0.92978932  0.17150691  0.05980874    -0.62600
O184        O  0.05515143  0.17465531  0.05531082    -0.71000
O185        O  0.05344898  0.24375960  0.04932334    -0.70500
O186        O  0.92838918  0.23964060  0.04699428    -0.61800
O187        O  0.98890056  0.25144342  0.10995168    -0.74300
O188        O  0.99138926  0.23373418  0.98571727    -0.73100
Cu189      Cu  0.99274949  0.17103022  0.05788618     1.04600
Cu190      Cu  0.99052409  0.24443293  0.04761279     1.04300
C191        C  0.99097103  0.19700410  0.97030906     0.93200
C192        C  0.99226794  0.22035945  0.13483466     0.92400
C193        C  0.90929835  0.20500281  0.05315963     0.84500
C194        C  0.07398081  0.20975773  0.05267649     0.90800
N195        N  0.00409432  0.24983971  0.31201604    -0.03500
C196        C  0.01330045  0.21907492  0.34009315    -0.00900
C197        C  0.01929309  0.23594170  0.37952790    -0.23800
C198        C  0.01286373  0.27812939  0.37584873    -0.24000
C199        C  0.00339011  0.28600363  0.33429262    -0.01000
H200        H  0.02507617  0.21916543  0.40847181     0.12800
H201        H  0.01196984  0.30028516  0.40143405     0.12800
N202        N  0.26978152  0.96232925  0.31862569    -0.03500
C203        C  0.29760092  0.95677993  0.28671550    -0.00900
C204        C  0.33748680  0.95669822  0.30236719    -0.23800
C205        C  0.33421950  0.96295513  0.34477934    -0.24000
C206        C  0.29239745  0.96671687  0.35428760    -0.01000
H207        H  0.36612451  0.95325609  0.28474050     0.12800
H208        H  0.35995376  0.96587385  0.36621062     0.12800
N209        N  0.28318788  0.19357341  0.04457006    -0.03500
C210        C  0.25370462  0.21990016  0.06041268    -0.00900
C211        C  0.27223003  0.25672487  0.07333869    -0.23800
C212        C  0.31385537  0.25341972  0.06467805    -0.24000
C213        C  0.32002372  0.21460434  0.04705468    -0.01000
H214        H  0.25689400  0.28430924  0.08522588     0.12800
H215        H  0.33676478  0.27799189  0.06795315     0.12800
O216        O  0.99657367  0.62369562  0.11287753    -0.73000
O217        O  0.00159677  0.61073103  0.98833357    -0.74000
O218        O  0.06150517  0.61936053  0.05218059    -0.62600
O219        O  0.93709071  0.61595241  0.04868648    -0.71000
O220        O  0.93534563  0.68512404  0.04417101    -0.70500
O221        O  0.06069384  0.68808859  0.04283738    -0.61800
O222        O  0.99742019  0.67938552  0.97952775    -0.74300
O223        O  0.99862399  0.69275510  0.10567158    -0.73100
Cu224      Cu  0.99919663  0.61513138  0.05071013     1.04600
Cu225      Cu  0.99791068  0.68884091  0.04262314     1.04300
C226        C  0.99783603  0.66010274  0.12895911     0.93200
C227        C  0.99979166  0.64256099  0.96414686     0.92400
C228        C  0.08082725  0.65419519  0.04844084     0.84500
C229        C  0.91652416  0.64994977  0.04673784     0.90800
N230        N  0.02169653  0.66578283  0.30672445    -0.03500
C231        C  0.03692453  0.69849973  0.32906553    -0.00900
C232        C  0.05074147  0.68475662  0.36776563    -0.23800
C233        C  0.04305647  0.64256550  0.36963215    -0.24000
C234        C  0.02520161  0.63156877  0.33195136    -0.01000
H235        H  0.06242422  0.70373219  0.39314519     0.12800
H236        H  0.04691418  0.62266487  0.39689776     0.12800
N237        N  0.29029784  0.67450865  0.05736977    -0.03500
C238        C  0.25913997  0.64797538  0.06946518    -0.00900
C239        C  0.27592168  0.61090819  0.08399507    -0.23800
C240        C  0.31826433  0.61436228  0.08009826    -0.24000
C241        C  0.32636522  0.65341504  0.06336815    -0.01000
H242        H  0.25902937  0.58321451  0.09387628     0.12800
H243        H  0.34043208  0.58953122  0.08495592     0.12800
N244        N  0.01098861  0.61487128  0.78619967    -0.03500
C245        C  0.02220369  0.64343667  0.75628443    -0.00900
C246        C  0.03159834  0.62332361  0.71905122    -0.23800
C247        C  0.02552803  0.58136857  0.72601473    -0.24000
C248        C  0.01256191  0.57693357  0.76726702    -0.01000
H249        H  0.03949601  0.63783695  0.68924613     0.12800
H250        H  0.02629095  0.55720244  0.70234858     0.12800
N251        N  0.74493533  0.90694578  0.73967967    -0.03500
C252        C  0.71389310  0.91576223  0.76751437    -0.00900
C253        C  0.67655930  0.91911954  0.74669246    -0.23800
C254        C  0.68466373  0.91165830  0.70507629    -0.24000
C255        C  0.72675632  0.90396625  0.70139910    -0.01000
H256        H  0.64633974  0.92503068  0.76045871     0.12800
H257        H  0.66180891  0.90965351  0.68042408     0.12800
N258        N  0.70760755  0.66235037  0.05048383    -0.03500
C259        C  0.73802897  0.63474064  0.06052631    -0.00900
C260        C  0.72053356  0.59657344  0.07135324    -0.23800
C261        C  0.67835008  0.60067801  0.06750882    -0.24000
C262        C  0.67108058  0.64121012  0.05456606    -0.01000
H263        H  0.73680919  0.56813272  0.07926521     0.12800
H264        H  0.65569533  0.57572934  0.07021245     0.12800
N265        N  0.93982994  0.49271084  0.76647140    -0.27300
N266        N  0.97205300  0.47248847  0.78191938    -0.35200
C267        C  0.00213169  0.50072243  0.79028918     0.01000
C268        C  0.98761168  0.54043329  0.78059213     0.07000
C269        C  0.94805535  0.53379434  0.76575321    -0.06100
H270        H  0.03362871  0.49264113  0.79842741     0.07700
H271        H  0.92940708  0.55644010  0.74914387     0.08900
Cu272      Cu  0.97539985  0.40680776  0.78345219     0.44200
Cu273      Cu  0.89436418  0.46579580  0.73000478     0.42000
Cu274      Cu  0.89213700  0.35726709  0.72404851     0.43900
N275        N  0.96602969  0.34175925  0.78005853    -0.34700
N276        N  0.93364276  0.32492095  0.76115889    -0.29000
C277        C  0.93805712  0.28329914  0.76020417    -0.05100
C278        C  0.97502035  0.27269027  0.77903647     0.07100
C279        C  0.99222675  0.31071490  0.79090876     0.00900
H280        H  0.91874292  0.26273224  0.74176883     0.08600
H281        H  0.02332633  0.31570954  0.80244419     0.07700
N282        N  0.86797777  0.39432124  0.67683691    -0.36200
N283        N  0.86886796  0.43543324  0.67914171    -0.28300
C284        C  0.86041160  0.45167933  0.64112395    -0.03600
C285        C  0.85399944  0.41900098  0.61335695     0.05000
C286        C  0.85872993  0.38313505  0.63729605     0.03100
H287        H  0.86296804  0.48456448  0.63358917     0.08200
H288        H  0.85976273  0.35139687  0.62578452     0.07100
N289        N  0.95737684  0.54435638  0.35202089    -0.27300
N290        N  0.98731082  0.52456627  0.33164150    -0.35200
C291        C  0.01492214  0.55324294  0.31719484     0.01000
C292        C  0.00093409  0.59271530  0.32824350     0.07000
C293        C  0.96468856  0.58558952  0.35050327    -0.06100
H294        H  0.04434190  0.54579082  0.30249460     0.07700
H295        H  0.94725922  0.60847279  0.36819703     0.08900
Cu296      Cu  0.98982658  0.45906184  0.32818354     0.44200
Cu297      Cu  0.91365554  0.51621539  0.39080494     0.42000
Cu298      Cu  0.90217652  0.40826243  0.38195851     0.43900
N299        N  0.97726858  0.39459620  0.32619317    -0.34700
N300        N  0.94278620  0.37792936  0.34177181    -0.29000
C301        C  0.94502202  0.33621402  0.33916278    -0.05100
C302        C  0.98295794  0.32523614  0.32201548     0.07100
C303        C  0.00276030  0.36326653  0.31444478     0.00900
H304        H  0.92378495  0.31523178  0.35533361     0.08600
H305        H  0.03503270  0.36762491  0.30580468     0.07700
N306        N  0.87965286  0.44035611  0.43364342    -0.36200
N307        N  0.88384691  0.48122345  0.43675918    -0.28300
C308        C  0.87339324  0.49299423  0.47592192    -0.03600
C309        C  0.86237361  0.45775446  0.49881290     0.05000
C310        C  0.86658643  0.42481697  0.47087205     0.03100
H311        H  0.87706348  0.52436151  0.48791291     0.08200
H312        H  0.86372118  0.39182230  0.47779494     0.07100
C313        C  0.85263179  0.42048900  0.56684762    -0.16500
C314        C  0.85608643  0.45639058  0.54493276    -0.31600
H315        H  0.85175798  0.39087883  0.55040614     0.12600
H316        H  0.85719823  0.48597366  0.56139070     0.13100
C317        C  0.14955745  0.62011763  0.03812514    -0.13400
C318        C  0.12670138  0.65490311  0.05129631     0.08800
C319        C  0.14789527  0.68892581  0.06922522    -0.13400
C320        C  0.19109266  0.68746900  0.07500215    -0.13400
C321        C  0.21387727  0.65254517  0.06164685     0.08800
C322        C  0.19254707  0.61912463  0.04290929    -0.13400
H323        H  0.13410644  0.59351534  0.02417631     0.12800
H324        H  0.13085747  0.71589875  0.08021489     0.12800
H325        H  0.20649216  0.71313672  0.09059490     0.12800
H326        H  0.20921974  0.59174195  0.03235120     0.12800
C327        C  0.03269747  0.68848940  0.19155698    -0.13400
C328        C  0.00083304  0.66415155  0.17471463     0.08800
C329        C  0.97466538  0.64113863  0.20172595    -0.13400
C330        C  0.98034540  0.64261504  0.24527842    -0.13400
C331        C  0.01325486  0.66589940  0.26221261     0.08800
C332        C  0.03936008  0.68867433  0.23474418    -0.13400
H333        H  0.05367816  0.70580073  0.17109963     0.12800
H334        H  0.94988628  0.62212542  0.18909151     0.12800
H335        H  0.95909875  0.62553276  0.26548278     0.12800
H336        H  0.06555920  0.70606570  0.24669984     0.12800
C337        C  0.85015113  0.61237230  0.03359374    -0.13400
C338        C  0.87071859  0.64809781  0.04814007     0.08800
C339        C  0.84730762  0.68052798  0.06609576    -0.13400
C340        C  0.80411045  0.67659903  0.07053086    -0.13400
C341        C  0.78354316  0.64091125  0.05556106     0.08800
C342        C  0.80711142  0.60897898  0.03697250    -0.13400
H343        H  0.86741165  0.58694486  0.01958260     0.12800
H344        H  0.86256609  0.70814434  0.07813833     0.12800
H345        H  0.78699825  0.70104343  0.08631386     0.12800
H346        H  0.79217897  0.58108500  0.02514037     0.12800
C347        C  0.98052616  0.66258557  0.89018041    -0.13400
C348        C  0.00114012  0.63590112  0.91823755     0.08800
C349        C  0.02271034  0.60138430  0.90226634    -0.13400
C350        C  0.02500341  0.59444908  0.85913355    -0.13400
C351        C  0.00511433  0.62129213  0.83077992     0.08800
C352        C  0.98174021  0.65477998  0.84679154    -0.13400
H353        H  0.96300041  0.68896072  0.90184220     0.12800
H354        H  0.03878918  0.58023387  0.92315660     0.12800
H355        H  0.04331468  0.56852538  0.84772379     0.12800
H356        H  0.96490925  0.67513776  0.82580509     0.12800
C357        C  0.14433372  0.18926061  0.02565946    -0.13400
C358        C  0.11974520  0.21104987  0.05477018     0.08800
C359        C  0.13916392  0.23375542  0.08662297    -0.13400
C360        C  0.18247527  0.23482539  0.08933068    -0.13400
C361        C  0.20754263  0.21411442  0.05956932     0.08800
C362        C  0.18782175  0.19149375  0.02747336    -0.13400
H363        H  0.12986582  0.17160214  0.00074951     0.12800
H364        H  0.12073715  0.25032515  0.10973484     0.12800
H365        H  0.19637155  0.25236142  0.11462488     0.12800
H366        H  0.20583694  0.17635132  0.00315011     0.12800
C367        C  0.02748821  0.21117003  0.20341490    -0.13400
C368        C  0.99479302  0.22813284  0.18033690     0.08800
C369        C  0.96628691  0.25463411  0.20049290    -0.13400
C370        C  0.96946288  0.26258452  0.24366037    -0.13400
C371        C  0.00195487  0.24512028  0.26695102     0.08800
C372        C  0.03152165  0.22031319  0.24604331    -0.13400
H373        H  0.05038130  0.19152331  0.18823536     0.12800
H374        H  0.94105495  0.26837200  0.18299352     0.12800
H375        H  0.94600014  0.28136592  0.25893339     0.12800
H376        H  0.05730308  0.20715859  0.26313569     0.12800
C377        C  0.15902419  0.93145232  0.33368317    -0.13400
C378        C  0.13850892  0.96147684  0.30938670     0.08800
C379        C  0.16177563  0.99139680  0.28689658    -0.13400
C380        C  0.20512488  0.99221596  0.29026698    -0.13400
C381        C  0.22541128  0.96263801  0.31546291     0.08800
C382        C  0.20215854  0.93157520  0.33598158    -0.13400
H383        H  0.14159187  0.90761349  0.35057116     0.12800
H384        H  0.14639263  0.01472013  0.26789179     0.12800
H385        H  0.22288063  0.01584280  0.27348202     0.12800
H386        H  0.21759496  0.90719706  0.35348162     0.12800
C387        C  0.03688912  0.10375454  0.35049173    -0.13400
C388        C  0.00965097  0.08580824  0.32151907     0.08800
C389        C  0.98397101  0.11176746  0.29759122    -0.13400
C390        C  0.98477107  0.15511162  0.30354025    -0.13400
C391        C  0.01269891  0.17327803  0.33206107     0.08800
C392        C  0.03874186  0.14699512  0.35535908    -0.13400
H393        H  0.05715616  0.08424160  0.36910056     0.12800
H394        H  0.96236637  0.09842129  0.27542532     0.12800
H395        H  0.96299303  0.17416427  0.28638595     0.12800
H396        H  0.06053829  0.15987311  0.37758608     0.12800
C397        C  0.05894926  0.81456838  0.32752773    -0.13400
C398        C  0.02443104  0.83046247  0.30638721     0.08800
C399        C  0.99545614  0.80271808  0.28920779    -0.13400
C400        C  0.99999195  0.75948955  0.29516766    -0.13400
C401        C  0.03412079  0.74353942  0.31747374     0.08800
C402        C  0.06397120  0.77161559  0.33265270    -0.13400
H403        H  0.08161199  0.83559728  0.34102152     0.12800
H404        H  0.96826436  0.81452487  0.27337342     0.12800
H405        H  0.97586254  0.73882314  0.28402266     0.12800
H406        H  0.09067963  0.76039726  0.34968708     0.12800
C407        C  0.29807132  0.08662233  0.99785502    -0.13400
C408        C  0.27235471  0.06222559  0.02404938     0.08800
C409        C  0.24861410  0.08174606  0.05528051    -0.13400
C410        C  0.25217204  0.12472968  0.06169866    -0.13400
C411        C  0.27803655  0.14951064  0.03575253     0.08800
C412        C  0.30020079  0.12999683  0.00305627    -0.13400
H413        H  0.31657424  0.07206860  0.97345920     0.12800
H414        H  0.22906501  0.06339872  0.07626147     0.12800
H415        H  0.23545214  0.13848025  0.08777052     0.12800
H416        H  0.31941646  0.14800603  0.98164568     0.12800
C417        C  0.31268711  0.96839592  0.16957358    -0.13400
C418        C  0.28036517  0.94412423  0.15323773     0.08800
C419        C  0.25151372  0.92563388  0.18111128    -0.13400
C420        C  0.25604530  0.93017885  0.22476263    -0.13400
C421        C  0.28890684  0.95411002  0.24096714     0.08800
C422        C  0.31668525  0.97358264  0.21273075    -0.13400
H423        H  0.33501214  0.98356445  0.14886020     0.12800
H424        H  0.22638045  0.90663449  0.16922330     0.12800
H425        H  0.23472545  0.91392583  0.24564335     0.12800
H426        H  0.34205504  0.99260440  0.22408940     0.12800
C427        C  0.25431033  0.77820715  0.01413575    -0.13400
C428        C  0.28234730  0.80564825  0.03356818     0.08800
C429        C  0.31353524  0.78912673  0.05908238    -0.13400
C430        C  0.31592134  0.74625203  0.06627729    -0.13400
C431        C  0.28787654  0.71853427  0.04735256     0.08800
C432        C  0.25761689  0.73483546  0.02027911    -0.13400
H433        H  0.23027004  0.79026717  0.99389777     0.12800
H434        H  0.33537553  0.80957270  0.07463801     0.12800
H435        H  0.33931628  0.73468266  0.08753200     0.12800
H436        H  0.23641915  0.71418643  0.00422009     0.12800
C437        C  0.24815932  0.95289474  0.82766070    -0.13400
C438        C  0.28163073  0.93375224  0.80682931     0.08800
C439        C  0.31166421  0.91286139  0.83060001    -0.13400
C440        C  0.30872062  0.91144590  0.87425867    -0.13400
C441        C  0.27541305  0.93051977  0.89521177     0.08800
C442        C  0.24476381  0.95079903  0.87158809    -0.13400
H443        H  0.22517959  0.97012428  0.81011653     0.12800
H444        H  0.33773586  0.89780313  0.81532558     0.12800
H445        H  0.33270464  0.89553461  0.89172345     0.12800
H446        H  0.21911940  0.96628067  0.88714719     0.12800
C447        C  0.02258679  0.17083781  0.85892046    -0.13400
C448        C  0.99344257  0.19363844  0.83542805     0.08800
C449        C  0.96141249  0.21434678  0.85701902    -0.13400
C450        C  0.96007417  0.21438982  0.90098192    -0.13400
C451        C  0.98983843  0.19253343  0.92423873     0.08800
C452        C  0.02046907  0.16982041  0.90291076    -0.13400
H453        H  0.04792326  0.15500312  0.84324660     0.12800
H454        H  0.93771993  0.23102981  0.84004290     0.12800
H455        H  0.93599218  0.23189597  0.91694234     0.12800
H456        H  0.04398745  0.15314554  0.92029562     0.12800
C457        C  0.14409311  0.94278742  0.72434736    -0.13400
C458        C  0.12938034  0.91422230  0.75462239     0.08800
C459        C  0.15773166  0.88930264  0.77647713    -0.13400
C460        C  0.20032870  0.89264731  0.76744449    -0.13400
C461        C  0.21493619  0.92179937  0.73742967     0.08800
C462        C  0.18640260  0.94687446  0.71625871    -0.13400
H463        H  0.12269564  0.96241666  0.70720828     0.12800
H464        H  0.14689697  0.86665865  0.79949680     0.12800
H465        H  0.22193450  0.87294632  0.78414278     0.12800
H466        H  0.19703210  0.97047093  0.69422794     0.12800
C467        C  0.03685843  0.05415897  0.74585584    -0.13400
C468        C  0.00583898  0.03406015  0.76953990     0.08800
C469        C  0.97908546  0.05802546  0.79469391    -0.13400
C470        C  0.98193084  0.10181914  0.79419525    -0.13400
C471        C  0.01254134  0.12212047  0.76964564     0.08800
C472        C  0.04052393  0.09759413  0.74633971    -0.13400
H473        H  0.05833505  0.03615301  0.72690931     0.12800
H474        H  0.95497484  0.04296287  0.81329768     0.12800
H475        H  0.95916860  0.11964523  0.81159999     0.12800
H476        H  0.06470610  0.11211331  0.72742201     0.12800
C477        C  0.99294401  0.75423567  0.72782675    -0.13400
C478        C  0.00996155  0.77726523  0.76085276     0.08800
C479        C  0.03155051  0.75607111  0.79273748    -0.13400
C480        C  0.03623403  0.71259347  0.79138200    -0.13400
C481        C  0.01815181  0.68949821  0.75891521     0.08800
C482        C  0.99675706  0.71080729  0.72704583    -0.13400
H483        H  0.97620776  0.76975925  0.70289470     0.12800
H484        H  0.04554042  0.77324017  0.81825295     0.12800
H485        H  0.05391616  0.69705449  0.81560158     0.12800
H486        H  0.98271120  0.69371786  0.70150241     0.12800
C487        C  0.85750939  0.93319154  0.73266517    -0.13400
C488        C  0.87494263  0.90621198  0.76253740     0.08800
C489        C  0.84873112  0.87962379  0.78603941    -0.13400
C490        C  0.80580419  0.87907534  0.77829004    -0.13400
C491        C  0.78880600  0.90573839  0.74767309     0.08800
C492        C  0.81496539  0.93330892  0.72576762    -0.13400
H493        H  0.87699685  0.95432287  0.71445693     0.12800
H494        H  0.86155120  0.85837787  0.80904986     0.12800
H495        H  0.78589894  0.85789827  0.79590244     0.12800
H496        H  0.80222685  0.95533629  0.70353520     0.12800
C497        C  0.79600480  0.17466771  0.07239260    -0.13400
C498        C  0.77550287  0.20646333  0.05022370     0.08800
C499        C  0.79929128  0.23659940  0.02860992    -0.13400
C500        C  0.84250085  0.23560821  0.02949234    -0.13400
C501        C  0.86327874  0.20421075  0.05177097     0.08800
C502        C  0.83964894  0.17323526  0.07271250    -0.13400
H503        H  0.77835253  0.15154018  0.08998891     0.12800
H504        H  0.78428986  0.26143906  0.01127780     0.12800
H505        H  0.85972680  0.25961577  0.01265890     0.12800
H506        H  0.85487758  0.14872213  0.09026730     0.12800
C507        C  0.82646981  0.90467231  0.34386781    -0.13400
C508        C  0.79846724  0.93039653  0.32254832     0.08800
C509        C  0.81380370  0.96322327  0.29734645    -0.13400
C510        C  0.85674059  0.97021940  0.29393347    -0.13400
C511        C  0.88446931  0.94513521  0.31661557     0.08800
C512        C  0.86896765  0.91236994  0.34155149    -0.13400
H513        H  0.81526077  0.87829593  0.36209468     0.12800
H514        H  0.79261051  0.98338934  0.28065703     0.12800
H515        H  0.86824482  0.99561801  0.27442710     0.12800
H516        H  0.88989061  0.89214793  0.35859554     0.12800
C517        C  0.68094799  0.06871491  0.05026950    -0.13400
C518        C  0.71604446  0.05145783  0.03062070     0.08800
C519        C  0.74522443  0.07833903  0.01150844    -0.13400
C520        C  0.73930187  0.12182012  0.01244300    -0.13400
C521        C  0.70495717  0.13897195  0.03384955     0.08800
C522        C  0.67573464  0.11178658  0.05222078    -0.13400
H523        H  0.65787484  0.04882561  0.06527209     0.12800
H524        H  0.77213155  0.06575668  0.99545748     0.12800
H525        H  0.76170040  0.14194392  0.99684856     0.12800
H526        H  0.64930858  0.12396880  0.06932677     0.12800
C527        C  0.76482762  0.90894980  0.18323707    -0.13400
C528        C  0.73055892  0.92542574  0.16155890     0.08800
C529        C  0.69733312  0.94167515  0.18488631    -0.13400
C530        C  0.69758295  0.94029824  0.22869966    -0.13400
C531        C  0.73072276  0.92204579  0.25059603     0.08800
C532        C  0.76473458  0.90687437  0.22742876    -0.13400
H533        H  0.79089514  0.89613235  0.16599640     0.12800
H534        H  0.67081185  0.95513389  0.16920737     0.08000
H535        H  0.67110216  0.95274433  0.24558651     0.12800
H536        H  0.79035237  0.89194104  0.24323981     0.12800
C537        C  0.75075491  0.93939063  0.87818579    -0.13400
C538        C  0.71900294  0.92074985  0.90251944     0.08800
C539        C  0.68606434  0.90080109  0.88223257    -0.13400
C540        C  0.68518675  0.89887156  0.83848325    -0.13400
C541        C  0.71686618  0.91739116  0.81397190     0.08800
C542        C  0.74935772  0.93829570  0.83423817    -0.13400
H543        H  0.77627489  0.95544018  0.89316355     0.12800
H544        H  0.66135296  0.88599607  0.90022455     0.12800
H545        H  0.65971495  0.88251631  0.82375547     0.12800
H546        H  0.77335868  0.95418587  0.81626537     0.12800
C547        C  0.68718729  0.73368856  0.06827341    -0.13400
C548        C  0.71161850  0.70681965  0.04393794     0.08800
C549        C  0.74087936  0.72411546  0.01561661    -0.13400
C550        C  0.74642176  0.76768290  0.01297126    -0.13400
C551        C  0.72180572  0.79431857  0.03766509     0.08800
C552        C  0.69199949  0.77680575  0.06499311    -0.13400
H553        H  0.66477878  0.72110984  0.09053597     0.12800
H554        H  0.75966900  0.70393608  0.99607237     0.12800
H555        H  0.76909049  0.78053034  0.99112949     0.12800
H556        H  0.67258751  0.79662840  0.08435242     0.12800
C557        C  0.52152964  0.90339742  0.53752744    -0.16500
C558        C  0.49906544  0.93715614  0.52766906    -0.31600
H559        H  0.50633099  0.87442320  0.54673539     0.12600
H560        H  0.51432817  0.96609299  0.51854574     0.13100
C561        C  0.47945329  0.44610652  0.89840838    -0.16500
C562        C  0.51138273  0.41914306  0.89882265    -0.31600
H563        H  0.44787167  0.43436321  0.89683106     0.12600
H564        H  0.54300045  0.43083853  0.89986895     0.13100
loop_ 
_geom_bond_atom_site_label_1 
_geom_bond_atom_site_label_2 
_geom_bond_distance 
_geom_bond_site_symmetry_2 
_ccdc_geom_bond_type 
N1            N2   1.323   1_556  A
N1            C5   1.341       .  A
N1           Cu9   2.065       .  S
N2            C3   1.353       .  A
N2           Cu8   2.113       .  S
C3            C4   1.393       .  A
C3            H6   1.082       .  S
C4            C5   1.380   1_554  A
C4          C262   1.477       .  S
C5            H7   1.082       .  S
Cu8          N11   2.114       .  S
Cu9          N19   2.066       .  S
Cu10         N12   2.070       .  S
Cu10         N18   2.071       .  S
N11          N12   1.324   1_554  A
N11          C15   1.352       .  A
N12          C13   1.342   1_556  A
C13          C14   1.379       .  A
C13          H16   1.082   1_554  S
C14          C15   1.391       .  A
C14         C241   1.477       .  S
C15          H17   1.082       .  S
N18          N19   1.319       .  A
N18          C22   1.346       .  A
N19          C20   1.345       .  A
C20          C21   1.388       .  A
C20          H23   1.081       .  S
C21          C22   1.385       .  A
C21         C561   1.482       .  S
C22          H24   1.082       .  S
N25          N26   1.324   1_556  A
N25          C29   1.342       .  A
N25         Cu33   2.067       .  S
N26          C27   1.352       .  A
N26         Cu32   2.119       .  S
C27          C28   1.394       .  A
C27          H30   1.082       .  S
C28          C29   1.381   1_554  A
C28         C122   1.479       .  S
C29          H31   1.082       .  S
Cu32         N35   2.119       .  S
Cu33         N43   2.069       .  S
Cu34         N36   2.066       .  S
Cu34         N42   2.066       .  S
N35          N36   1.323   1_554  A
N35          C39   1.355       .  A
N36          C37   1.341       .  A
C37          C38   1.380   1_556  A
C37          H40   1.082       .  S
C38          C39   1.394       .  A
C38         C213   1.480       .  S
C39          H41   1.082       .  S
N42          N43   1.318       .  A
N42          C46   1.345       .  A
N43          C44   1.346       .  A
C44          C45   1.385       .  A
C44          H47   1.082       .  S
C45          C46   1.388       .  A
C45         C562   1.481       .  S
C46          H48   1.081       .  S
N49          N50   1.319       .  A
N49          C53   1.338       .  A
N49         Cu57   2.054       .  S
N50          C51   1.352       .  A
N50         Cu56   2.097       .  S
C51          C52   1.395       .  A
C51          H54   1.080       .  S
C52          C53   1.383       .  A
C52         C255   1.485       .  S
C53          H55   1.083       .  S
Cu56         N59   2.096       .  S
Cu57         N67   2.067       .  S
Cu58         N60   2.050       .  S
Cu58         N66   2.063       .  S
N59          N60   1.318       .  A
N59          C63   1.353       .  A
N60          C61   1.338       .  A
C61          C62   1.382       .  A
C61          H64   1.083       .  S
C62          C63   1.396       .  A
C62         C115   1.485       .  S
C63          H65   1.080       .  S
N66          N67   1.323       .  A
N66          C70   1.340       .  A
N67          C68   1.344       .  A
C68          C69   1.380       .  A
C68          H71   1.082       .  S
C69          C70   1.384       .  A
C69         C557   1.472       .  S
C70          H72   1.081       .  S
N73          N74   1.319       .  A
N73          C77   1.339       .  A
N73         Cu81   2.057       .  S
N74          C75   1.353       .  A
N74         Cu80   2.103       .  S
C75          C76   1.396       .  A
C75          H78   1.081       .  S
C76          C77   1.383       .  A
C76         C150   1.484       .  S
C77          H79   1.083       .  S
Cu80         N83   2.101       .  S
Cu81         N91   2.068       .  S
Cu82         N84   2.054       .  S
Cu82         N90   2.065       .  S
N83          N84   1.317       .  A
N83          C87   1.354       .  A
N84          C85   1.337   1_565  A
C85          C86   1.384   1_545  A
C85          H88   1.082       .  S
C86          C87   1.398       .  A
C86         C206   1.491       .  S
C87          H89   1.078       .  S
N90          N91   1.323       .  A
N90          C94   1.341       .  A
N91          C92   1.344       .  A
C92          C93   1.385       .  A
C92          H95   1.081       .  S
C93          C94   1.378       .  A
C93         C558   1.468       .  S
C94          H96   1.082   1_565  S
O97        Cu105   2.050       .  S
O97         C107   1.283       .  A
O98        Cu105   2.047       .  S
O98         C108   1.283   1_565  A
O99        Cu105   2.020       .  S
O99         C109   1.278       .  A
O100       Cu105   1.998   1_556  S
O100        C110   1.275       .  A
O101       Cu106   2.020   1_556  S
O101        C110   1.280       .  A
O102       Cu106   2.020       .  S
O102        C109   1.281       .  A
O103       Cu106   1.975       .  S
O103        C108   1.273   1_565  A
O104       Cu106   1.977       .  S
O104        C107   1.273       .  A
Cu105      Cu106   2.371       .  S
C107        C551   1.477       .  S
C108        C518   1.479       .  S
C109        C528   1.485       .  S
C110        C538   1.476       .  S
N111        C115   1.360       .  A
N111        C112   1.364       .  A
N111        C508   1.438       .  S
C112        C113   1.384       .  A
C112        C531   1.491       .  S
C113        C114   1.370       .  A
C113        H116   1.082       .  S
C114        C115   1.382       .  A
C114        H117   1.083       .  S
N118        C122   1.363       .  A
N118        C119   1.363       .  A
N118        C521   1.445       .  S
C119        C120   1.383       .  A
C119        C498   1.486       .  S
C120        C121   1.372       .  A
C120        H123   1.082       .  S
C121        C122   1.380       .  A
C121        H124   1.082       .  S
O125       Cu133   1.973   1_655  S
O125        C135   1.273       .  A
O126       Cu133   1.965       .  S
O126        C136   1.272       .  A
O127       Cu133   2.024       .  S
O127        C137   1.281       .  A
O128       Cu133   2.016       .  S
O128        C138   1.280       .  A
O129       Cu134   2.013       .  S
O129        C138   1.276       .  A
O130       Cu134   1.998       .  S
O130        C137   1.276       .  A
O131       Cu134   2.047       .  S
O131        C136   1.283       .  A
O132       Cu134   2.051   1_655  S
O132        C135   1.283       .  A
Cu133      Cu134   2.373       .  S
C135        C488   1.476       .  S
C136        C458   1.470       .  S
C137        C478   1.478       .  S
C138        C468   1.473   1_565  S
N139        C143   1.364       .  A
N139        C140   1.364   1_655  A
N139        C448   1.448       .  S
C140        C141   1.385       .  A
C140        C471   1.491       .  S
C141        C142   1.369       .  A
C141        H144   1.082       .  S
C142        C143   1.379   1_455  A
C142        H145   1.082       .  S
C143        C278   1.475       .  S
N146        C150   1.361       .  A
N146        C147   1.360       .  A
N146        C461   1.439       .  S
C147        C148   1.382       .  A
C147        C438   1.482       .  S
C148        C149   1.371       .  A
C148        H151   1.082       .  S
C149        C150   1.384       .  A
C149        H152   1.083       .  S
O153       Cu161   2.025   1_556  S
O153        C163   1.280       .  A
O154       Cu161   2.028       .  S
O154        C164   1.280       .  A
O155       Cu161   2.017       .  S
O155        C165   1.279   1_565  A
O156       Cu161   2.025       .  S
O156        C166   1.279       .  A
O157       Cu162   2.003       .  S
O157        C166   1.278       .  A
O158       Cu162   2.004       .  S
O158        C165   1.276   1_565  A
O159       Cu162   1.995       .  S
O159        C164   1.277       .  A
O160       Cu162   1.990   1_556  S
O160        C163   1.276       .  A
Cu161      Cu162   2.370       .  S
C163        C441   1.475       .  S
C164        C418   1.478       .  S
C165        C408   1.472       .  S
C166        C428   1.477       .  S
O167       Cu175   2.025       .  S
O167        C177   1.279       .  A
O168       Cu175   2.015   1_655  S
O168        C178   1.278       .  A
O169       Cu175   2.020   1_545  S
O169        C179   1.279       .  A
O170       Cu175   2.036       .  S
O170        C180   1.280       .  A
O171       Cu176   1.986       .  S
O171        C180   1.275       .  A
O172       Cu176   1.999   1_545  S
O172        C179   1.277       .  A
O173       Cu176   2.004   1_655  S
O173        C178   1.278       .  A
O174       Cu176   1.988       .  S
O174        C177   1.275       .  A
Cu175      Cu176   2.377       .  S
C177        C378   1.468       .  S
C178        C511   1.470       .  S
C179        C388   1.472       .  S
C180        C398   1.470       .  S
O181       Cu189   2.032   1_556  S
O181        C191   1.280       .  A
O182       Cu189   2.032       .  S
O182        C192   1.282       .  A
O183       Cu189   2.030       .  S
O183        C193   1.279       .  A
O184       Cu189   2.015   1_455  S
O184        C194   1.277       .  A
O185       Cu190   2.029   1_455  S
O185        C194   1.281       .  A
O186       Cu190   2.008       .  S
O186        C193   1.279       .  A
O187       Cu190   1.998       .  S
O187        C192   1.274       .  A
O188       Cu190   2.001   1_556  S
O188        C191   1.276       .  A
Cu189      Cu190   2.372       .  S
C191        C451   1.475       .  S
C192        C368   1.473       .  S
C193        C501   1.484       .  S
C194        C358   1.477       .  S
N195        C199   1.360       .  A
N195        C196   1.362       .  A
N195        C371   1.445       .  S
C196        C197   1.383       .  A
C196        C391   1.489       .  S
C197        C198   1.372       .  A
C197        H200   1.082       .  S
C198        C199   1.382       .  A
C198        H201   1.083       .  S
C199        C302   1.473   1_455  S
N202        C206   1.361       .  A
N202        C203   1.362       .  A
N202        C381   1.434       .  S
C203        C204   1.382       .  A
C203        C421   1.488       .  S
C204        C205   1.369       .  A
C204        H207   1.082       .  S
C205        C206   1.385       .  A
C205        H208   1.082       .  S
N209        C213   1.365       .  A
N209        C210   1.367       .  A
N209        C411   1.448       .  S
C210        C211   1.385       .  A
C210        C361   1.499       .  S
C211        C212   1.372       .  A
C211        H214   1.082       .  S
C212        C213   1.380       .  A
C212        H215   1.082       .  S
O216       Cu224   2.000       .  S
O216        C226   1.276       .  A
O217       Cu224   1.992   1_456  S
O217        C227   1.276   1_455  A
O218       Cu224   2.013   1_455  S
O218        C228   1.279       .  A
O219       Cu224   2.003       .  S
O219        C229   1.278       .  A
O220       Cu225   2.020       .  S
O220        C229   1.279       .  A
O221       Cu225   2.024   1_455  S
O221        C228   1.279       .  A
O222       Cu225   2.032   1_556  S
O222        C227   1.281       .  A
O223       Cu225   2.011       .  S
O223        C226   1.278       .  A
Cu224      Cu225   2.373       .  S
C226        C328   1.467   1_655  S
C227        C348   1.478   1_655  S
C228        C318   1.482       .  S
C229        C338   1.477       .  S
N230        C234   1.361       .  A
N230        C231   1.361       .  A
N230        C331   1.445       .  S
C231        C232   1.384       .  A
C231        C401   1.490       .  S
C232        C233   1.373       .  A
C232        H235   1.082       .  S
C233        C234   1.381       .  A
C233        H236   1.082       .  S
C234        C292   1.472       .  S
N237        C241   1.361       .  A
N237        C238   1.364       .  A
N237        C431   1.446       .  S
C238        C239   1.385       .  A
C238        C321   1.490       .  S
C239        C240   1.373       .  A
C239        H242   1.082       .  S
C240        C241   1.379       .  A
C240        H243   1.082       .  S
N244        C248   1.359       .  A
N244        C245   1.363       .  A
N244        C351   1.446       .  S
C245        C246   1.383       .  A
C245        C481   1.483       .  S
C246        C247   1.373       .  A
C246        H249   1.082       .  S
C247        C248   1.381       .  A
C247        H250   1.082       .  S
C248        C268   1.474   1_455  S
N251        C255   1.360       .  A
N251        C252   1.362       .  A
N251        C491   1.439       .  S
C252        C253   1.383       .  A
C252        C541   1.484       .  S
C253        C254   1.370       .  A
C253        H256   1.082       .  S
C254        C255   1.384       .  A
C254        H257   1.083       .  S
N258        C262   1.360       .  A
N258        C259   1.362       .  A
N258        C548   1.443       .  S
C259        C260   1.384       .  A
C259        C341   1.486       .  S
C260        C261   1.373       .  A
C260        H263   1.082       .  S
C261        C262   1.381       .  A
C261        H264   1.082       .  S
N265        N266   1.323       .  A
N265        C269   1.340       .  A
N265       Cu273   2.065       .  S
N266        C267   1.351   1_655  A
N266       Cu272   2.106       .  S
C267        C268   1.391   1_455  A
C267        H270   1.082       .  S
C268        C269   1.379       .  A
C269        H271   1.082       .  S
Cu272       N275   2.106       .  S
Cu273       N283   2.066       .  S
Cu274       N276   2.070       .  S
Cu274       N282   2.069       .  S
N275        N276   1.323       .  A
N275        C279   1.352       .  A
N276        C277   1.341       .  A
C277        C278   1.381       .  A
C277        H280   1.082       .  S
C278        C279   1.391       .  A
C279        H281   1.082   1_655  S
N282        N283   1.318       .  A
N282        C286   1.345       .  A
N283        C284   1.345       .  A
C284        C285   1.388       .  A
C284        H287   1.081       .  S
C285        C286   1.385       .  A
C285        C313   1.482       .  S
C286        H288   1.082       .  S
N289        N290   1.323       .  A
N289        C293   1.340       .  A
N289       Cu297   2.066       .  S
N290        C291   1.352   1_655  A
N290       Cu296   2.102       .  S
C291        C292   1.389       .  A
C291        H294   1.082       .  S
C292        C293   1.379   1_455  A
C293        H295   1.082       .  S
Cu296       N299   2.102       .  S
Cu297       N307   2.066       .  S
Cu298       N300   2.070       .  S
Cu298       N306   2.071       .  S
N299        N300   1.322       .  A
N299        C303   1.351   1_655  A
N300        C301   1.340       .  A
C301        C302   1.382       .  A
C301        H304   1.082       .  S
C302        C303   1.391   1_655  A
C303        H305   1.082       .  S
N306        N307   1.319       .  A
N306        C310   1.347       .  A
N307        C308   1.344       .  A
C308        C309   1.383       .  A
C308        H311   1.082       .  S
C309        C310   1.389       .  A
C309        C314   1.481       .  S
C310        H312   1.081       .  S
C313        C314   1.345       .  D
C313        H315   1.085       .  S
C314        H316   1.085       .  S
C317        C318   1.401       .  A
C317        C322   1.396       .  A
C317        H323   1.083       .  S
C318        C319   1.409       .  A
C319        C320   1.407       .  A
C319        H324   1.083       .  S
C320        C321   1.405       .  A
C320        H325   1.083       .  S
C321        C322   1.407       .  A
C322        H326   1.083       .  S
C327        C328   1.398       .  A
C327        C332   1.393       .  A
C327        H333   1.084       .  S
C328        C329   1.403   1_455  A
C329        C330   1.401       .  A
C329        H334   1.083       .  S
C330        C331   1.406   1_655  A
C330        H335   1.081       .  S
C331        C332   1.407       .  A
C332        H336   1.082       .  S
C337        C338   1.402       .  A
C337        C342   1.394       .  A
C337        H343   1.083       .  S
C338        C339   1.406       .  A
C339        C340   1.403       .  A
C339        H344   1.083       .  S
C340        C341   1.405       .  A
C340        H345   1.082       .  S
C341        C342   1.406       .  A
C342        H346   1.083       .  S
C347        C348   1.406   1_655  A
C347        C352   1.405       .  A
C347        H353   1.083       .  S
C348        C349   1.403       .  A
C349        C350   1.393       .  A
C349        H354   1.083       .  S
C350        C351   1.404       .  A
C350        H355   1.083       .  S
C351        C352   1.408   1_455  A
C352        H356   1.082       .  S
C357        C358   1.404       .  A
C357        C362   1.405       .  A
C357        H363   1.083       .  S
C358        C359   1.400       .  A
C359        C360   1.399       .  A
C359        H364   1.083       .  S
C360        C361   1.410       .  A
C360        H365   1.082       .  S
C361        C362   1.409       .  A
C362        H366   1.081       .  S
C367        C368   1.400   1_455  A
C367        C372   1.396       .  A
C367        H373   1.083       .  S
C368        C369   1.406       .  A
C369        C370   1.403       .  A
C369        H374   1.083       .  S
C370        C371   1.404   1_655  A
C370        H375   1.082       .  S
C371        C372   1.408       .  A
C372        H376   1.083       .  S
C377        C378   1.402       .  A
C377        C382   1.393       .  A
C377        H383   1.084       .  S
C378        C379   1.404       .  A
C379        C380   1.402       .  A
C379        H384   1.083   1_565  S
C380        C381   1.405       .  A
C380        H385   1.083   1_565  S
C381        C382   1.399       .  A
C382        H386   1.082       .  S
C387        C388   1.402       .  A
C387        C392   1.394       .  A
C387        H393   1.083       .  S
C388        C389   1.402   1_455  A
C389        C390   1.401       .  A
C389        H394   1.083       .  S
C390        C391   1.409   1_655  A
C390        H395   1.081       .  S
C391        C392   1.404       .  A
C392        H396   1.083       .  S
C397        C398   1.401       .  A
C397        C402   1.394       .  A
C397        H403   1.084       .  S
C398        C399   1.402   1_455  A
C399        C400   1.404       .  A
C399        H404   1.083       .  S
C400        C401   1.410   1_655  A
C400        H405   1.082       .  S
C401        C402   1.404       .  A
C402        H406   1.083       .  S
C407        C408   1.403   1_556  A
C407        C412   1.400   1_556  A
C407        H413   1.083       .  S
C408        C409   1.400       .  A
C409        C410   1.396       .  A
C409        H414   1.083       .  S
C410        C411   1.408       .  A
C410        H415   1.082       .  S
C411        C412   1.407       .  A
C412        H416   1.080   1_554  S
C417        C418   1.402       .  A
C417        C422   1.391       .  A
C417        H423   1.084       .  S
C418        C419   1.407       .  A
C419        C420   1.406       .  A
C419        H424   1.083       .  S
C420        C421   1.407       .  A
C420        H425   1.082       .  S
C421        C422   1.405       .  A
C422        H426   1.083       .  S
C427        C428   1.406       .  A
C427        C432   1.406       .  A
C427        H433   1.083   1_554  S
C428        C429   1.401       .  A
C429        C430   1.393       .  A
C429        H434   1.083       .  S
C430        C431   1.405       .  A
C430        H435   1.082       .  S
C431        C432   1.407       .  A
C432        H436   1.082       .  S
C437        C438   1.406       .  A
C437        C442   1.403       .  A
C437        H443   1.083       .  S
C438        C439   1.403       .  A
C439        C440   1.392       .  A
C439        H444   1.083       .  S
C440        C441   1.402       .  A
C440        H445   1.083       .  S
C441        C442   1.406       .  A
C442        H446   1.083       .  S
C447        C448   1.409   1_455  A
C447        C452   1.401       .  A
C447        H453   1.082       .  S
C448        C449   1.405       .  A
C449        C450   1.400       .  A
C449        H454   1.081       .  S
C450        C451   1.404       .  A
C450        H455   1.084       .  S
C451        C452   1.401   1_655  A
C452        H456   1.083       .  S
C457        C458   1.403       .  A
C457        C462   1.391       .  A
C457        H463   1.084       .  S
C458        C459   1.402       .  A
C459        C460   1.404       .  A
C459        H464   1.083       .  S
C460        C461   1.409       .  A
C460        H465   1.082       .  S
C461        C462   1.398       .  A
C462        H466   1.081       .  S
C467        C468   1.400       .  A
C467        C472   1.395       .  A
C467        H473   1.084       .  S
C468        C469   1.404   1_455  A
C469        C470   1.404       .  A
C469        H474   1.083       .  S
C470        C471   1.408   1_655  A
C470        H475   1.082       .  S
C471        C472   1.407       .  A
C472        H476   1.083       .  S
C477        C478   1.401   1_655  A
C477        C482   1.396       .  A
C477        H483   1.083       .  S
C478        C479   1.408       .  A
C479        C480   1.401       .  A
C479        H484   1.083       .  S
C480        C481   1.403       .  A
C480        H485   1.083       .  S
C481        C482   1.407   1_455  A
C482        H486   1.083       .  S
C487        C488   1.404       .  A
C487        C492   1.390       .  A
C487        H493   1.084       .  S
C488        C489   1.405       .  A
C489        C490   1.407       .  A
C489        H494   1.083       .  S
C490        C491   1.408       .  A
C490        H495   1.083       .  S
C491        C492   1.398       .  A
C492        H496   1.081       .  S
C497        C498   1.406       .  A
C497        C502   1.408       .  A
C497        H503   1.083       .  S
C498        C499   1.404       .  A
C499        C500   1.394       .  A
C499        H504   1.083       .  S
C500        C501   1.403       .  A
C500        H505   1.083       .  S
C501        C502   1.409       .  A
C502        H506   1.083       .  S
C507        C508   1.401       .  A
C507        C512   1.392       .  A
C507        H513   1.081       .  S
C508        C509   1.405       .  A
C509        C510   1.404       .  A
C509        H514   1.083       .  S
C510        C511   1.406       .  A
C510        H515   1.083       .  S
C511        C512   1.400       .  A
C512        H516   1.084       .  S
C517        C518   1.404       .  A
C517        C522   1.391       .  A
C517        H523   1.083       .  S
C518        C519   1.405       .  A
C519        C520   1.406       .  A
C519        H524   1.083   1_554  S
C520        C521   1.409       .  A
C520        H525   1.081   1_554  S
C521        C522   1.402       .  A
C522        H526   1.082       .  S
C527        C528   1.410       .  A
C527        C532   1.408       .  A
C527        H533   1.083       .  S
C528        C529   1.401       .  A
C529        C530   1.395       .  A
C529        H534   1.083       .  S
C530        C531   1.408       .  A
C530        H535   1.083       .  S
C531        C532   1.405       .  A
C532        H536   1.082       .  S
C537        C538   1.407       .  A
C537        C542   1.400       .  A
C537        H543   1.083       .  S
C538        C539   1.400       .  A
C539        C540   1.395       .  A
C539        H544   1.083       .  S
C540        C541   1.407       .  A
C540        H545   1.083       .  S
C541        C542   1.403       .  A
C542        H546   1.082       .  S
C547        C548   1.400       .  A
C547        C552   1.391       .  A
C547        H553   1.083       .  S
C548        C549   1.409       .  A
C549        C550   1.407       .  A
C549        H554   1.082   1_554  S
C550        C551   1.405       .  A
C550        H555   1.083   1_554  S
C551        C552   1.404       .  A
C552        H556   1.084       .  S
C557        C558   1.341       .  D
C557        H559   1.085       .  S
C558        H560   1.084       .  S
C561        C562   1.346       .  D
C561        H563   1.085       .  S
C562        H564   1.085       .  S
