geometry optimzed in LAMMPS
_audit_creation_date              2020-11-30 
_audit_creation_method            'lammps2cif' 
_symmetry_space_group_name_H-M    'P1' 
_symmetry_Int_Tables_number       1 
_symmetry_cell_setting            triclinic 
loop_ 
_symmetry_equiv_pos_as_xyz 
  x,y,z 
_cell_length_a                    36.12995974 
_cell_length_b                    36.078864762670335 
_cell_length_c                    36.10596117300925 
_cell_angle_alpha                 90.04196038383773 
_cell_angle_beta                  89.99765605325888 
_cell_angle_gamma                 89.97853155776183 
loop_ 
_atom_site_label 
_atom_site_type_symbol 
_atom_site_fract_x 
_atom_site_fract_y 
_atom_site_fract_z 
_atom_site_charge 
C1          C  0.03153233  0.98612120  0.98227487     0.01300
C2          C  0.01295444  0.01678131  0.96761265     0.01300
C3          C  0.98188938  0.03107572  0.98579771     0.01300
C4          C  0.96760213  0.01280742  0.01681569     0.01300
C5          C  0.98610748  0.98207353  0.03140994     0.01300
C6          C  0.01718678  0.96781605  0.01322868     0.01300
O7          O  0.03351745  0.16835344  0.86393425    -0.81100
O8          O  0.96620007  0.33131397  0.86411697    -0.81100
O9          O  0.94669542  0.24838408  0.81637605    -0.81200
O10         O  0.05320478  0.25139925  0.81648124    -0.81100
O11         O  0.91903924  0.27756351  0.86223975    -0.81200
O12         O  0.08065639  0.22209931  0.86235586    -0.81100
O13         O  0.99669824  0.30758495  0.81712096    -0.81100
O14         O  0.00314235  0.19221970  0.81695681    -0.81200
C15         C  0.02516244  0.16768157  0.82963162     1.08600
C16         C  0.97462209  0.33208179  0.82982575     1.08400
C17         C  0.92078524  0.26898991  0.82817635     1.08600
C18         C  0.07908316  0.23078327  0.82832265     1.08500
O19         O  0.05763498  0.25297460  0.93282990    -0.81100
O20         O  0.94196564  0.24651332  0.93268691    -0.81200
O21         O  0.97220520  0.16906049  0.88728286    -0.81100
O22         O  0.02744402  0.33051934  0.88769072    -0.81100
O23         O  0.99814915  0.30280076  0.93340846    -0.81200
O24         O  0.00139026  0.19650294  0.93327813    -0.81100
O25         O  0.08133027  0.28348971  0.88587085    -0.81100
O26         O  0.91832717  0.21612621  0.88559988    -0.81200
Co27       Co  0.03933543  0.21350153  0.89793445     1.51500
Co28       Co  0.96028781  0.28604737  0.89794088     1.51700
Co29       Co  0.96359533  0.21038734  0.85173804     1.51600
Co30       Co  0.03615248  0.28930672  0.85195235     1.51500
O31         O  0.99984730  0.24980756  0.87490090    -1.43100
C32         C  0.08217324  0.27497191  0.92013357     1.08500
C33         C  0.91747503  0.22450724  0.91991194     1.08600
C34         C  0.98081704  0.17062264  0.92133489     1.08500
C35         C  0.01872465  0.32874596  0.92170724     1.08500
O36         O  0.86412522  0.03306025  0.16818607    -0.81100
O37         O  0.86444243  0.96657035  0.33165234    -0.81100
O38         O  0.81666629  0.94661621  0.24853814    -0.81200
O39         O  0.81631159  0.05250706  0.25139768    -0.81100
O40         O  0.86252047  0.91924875  0.27797803    -0.81200
O41         O  0.86180115  0.08035651  0.22187818    -0.81100
O42         O  0.81730507  0.99663139  0.30782590    -0.81100
O43         O  0.81719466  0.00266975  0.19200278    -0.81200
C44         C  0.82988739  0.02457823  0.16739392     1.08600
C45         C  0.83014297  0.97485523  0.33246419     1.08400
C46         C  0.82850067  0.92085859  0.26931508     1.08600
C47         C  0.82783741  0.07845883  0.23074033     1.08500
O48         O  0.93245547  0.05791765  0.25290992    -0.81100
O49         O  0.93284261  0.94220989  0.24683091    -0.81200
O50         O  0.88777411  0.97172404  0.16928074    -0.81100
O51         O  0.88770136  0.02801574  0.33048813    -0.81100
O52         O  0.93347957  0.99869626  0.30285380    -0.81200
O53         O  0.93338949  0.00142714  0.19678197    -0.81100
O54         O  0.88536219  0.08162574  0.28317782    -0.81100
O55         O  0.88589249  0.91813575  0.21663350    -0.81200
Co56       Co  0.89779120  0.03928208  0.21346655     1.51500
Co57       Co  0.89813591  0.96059354  0.28630683     1.51700
Co58       Co  0.85203791  0.96331540  0.21053184     1.51600
Co59       Co  0.85185473  0.03617864  0.28930349     1.51500
O60         O  0.87495792  0.99983629  0.24989142    -1.43100
C61         C  0.91964199  0.08247373  0.27485292     1.08500
C62         C  0.92015666  0.91748506  0.22502890     1.08600
C63         C  0.92173670  0.98062883  0.17094632     1.08500
C64         C  0.92172849  0.01937406  0.32873522     1.08500
C65         C  0.03229195  0.01341384  0.51690126     0.01300
C66         C  0.01768739  0.03172089  0.48606651     0.01300
C67         C  0.98680431  0.01718369  0.46779231     0.01300
C68         C  0.96872892  0.98609010  0.48215212     0.01300
C69         C  0.98339640  0.96775556  0.51294205     0.01300
C70         C  0.01423159  0.98233033  0.53125679     0.01300
O71         O  0.03404057  0.83125736  0.63545202    -0.81100
O72         O  0.96644668  0.66828245  0.63584414    -0.81100
O73         O  0.94727131  0.75168859  0.68360899    -0.81200
O74         O  0.05325112  0.74816749  0.68343574    -0.81100
O75         O  0.91951202  0.72225414  0.63795580    -0.81200
O76         O  0.08098467  0.77730680  0.63762008    -0.81100
O77         O  0.99686538  0.69208341  0.68281470    -0.81100
O78         O  0.00369770  0.80774071  0.68258281    -0.81200
C79         C  0.02568522  0.83219579  0.66974924     1.08600
C80         C  0.97489235  0.66753102  0.67011671     1.08400
C81         C  0.92136937  0.73099766  0.67198072     1.08600
C82         C  0.07917541  0.76873884  0.67167450     1.08500
O83         O  0.05809985  0.74607135  0.56716477    -0.81100
O84         O  0.94221745  0.75307024  0.56729228    -0.81200
O85         O  0.97273345  0.83042788  0.61202282    -0.81100
O86         O  0.02769226  0.66896563  0.61229650    -0.81100
O87         O  0.99830548  0.69654003  0.56651180    -0.81200
O88         O  0.00200214  0.80251204  0.56632989    -0.81100
O89         O  0.08168547  0.71583161  0.61431974    -0.81100
O90         O  0.91870595  0.78359606  0.61435301    -0.81200
Co91       Co  0.03983351  0.78578989  0.60181924     1.51500
Co92       Co  0.96056608  0.71354321  0.60205717     1.51700
Co93       Co  0.96410283  0.78941692  0.64796598     1.51600
Co94       Co  0.03637228  0.71020289  0.64803702     1.51500
O95         O  0.00021774  0.74973743  0.62495293    -1.43100
C96         C  0.08254205  0.72404730  0.57999889     1.08500
C97         C  0.91778373  0.77515788  0.58006781     1.08600
C98         C  0.98148886  0.82855407  0.57800942     1.08500
C99         C  0.01895770  0.67064647  0.57827146     1.08500
O100        O  0.16836114  0.86454348  0.03387464    -0.81100
O101        O  0.33140765  0.86489850  0.96662578    -0.81100
O102        O  0.24831513  0.81694911  0.94708644    -0.81200
O103        O  0.25166923  0.81671115  0.05320408    -0.81100
O104        O  0.27758432  0.86284793  0.91958085    -0.81200
O105        O  0.22220055  0.86241101  0.08092376    -0.81100
O106        O  0.30782863  0.81770122  0.99684082    -0.81100
O107        O  0.19209087  0.81751799  0.00342603    -0.81200
C108        C  0.16755760  0.83023485  0.02542206     1.08600
C109        C  0.33231911  0.83056505  0.97492253     1.08400
C110        C  0.26890346  0.82879036  0.92120491     1.08600
C111        C  0.23102225  0.82838250  0.07914245     1.08500
O112        O  0.25308507  0.93306001  0.05819987    -0.81100
O113        O  0.24646939  0.93331729  0.94251773    -0.81200
O114        O  0.16922621  0.88819502  0.97260723    -0.81100
O115        O  0.33052178  0.88831554  0.02802614    -0.81100
O116        O  0.30275670  0.93408359  0.99877100    -0.81200
O117        O  0.19688528  0.93390237  0.00207411    -0.81100
O118        O  0.28346373  0.88597973  0.08182612    -0.81100
O119        O  0.21622874  0.88619305  0.91875203    -0.81200
Co120      Co  0.21363141  0.89831075  0.03984043     1.51500
Co121      Co  0.28604577  0.89859597  0.96081983     1.51700
Co122      Co  0.21039949  0.85237679  0.96398609     1.51600
Co123      Co  0.28943752  0.85234645  0.03645471     1.51500
O124        O  0.24987927  0.87538812  0.00027342    -1.43100
C125        C  0.27506072  0.92028349  0.08268249     1.08500
C126        C  0.22452893  0.92052256  0.91797598     1.08600
C127        C  0.17103804  0.92224487  0.98135585     1.08500
C128        C  0.32869675  0.92238054  0.01935797     1.08500
O129        O  0.99712517  0.80767102  0.18323302    -0.81100
O130        O  0.00352004  0.69206693  0.18308802    -0.81100
O131        O  0.91953518  0.77781350  0.13853184    -0.81200
O132        O  0.08084044  0.72198567  0.13781917    -0.81100
O133        O  0.94733707  0.74836183  0.18411621    -0.81200
O134        O  0.05338620  0.75128169  0.18375504    -0.81100
O135        O  0.03366380  0.66828689  0.13590921    -0.81100
O136        O  0.96672245  0.83150329  0.13627705    -0.81200
C137        C  0.97516006  0.83224531  0.17053948     1.08600
C138        C  0.02541799  0.66750189  0.17023795     1.08400
C139        C  0.92138444  0.76900517  0.17253693     1.08600
C140        C  0.07916584  0.73053420  0.17189608     1.08500
O141        O  0.08172586  0.78340834  0.11453218    -0.81100
O142        O  0.91852672  0.71644215  0.11492141    -0.81200
O143        O  0.99838918  0.80303983  0.06695798    -0.81100
O144        O  0.00149916  0.69698514  0.06683256    -0.81100
O145        O  0.97231485  0.66931579  0.11266476    -0.81200
O146        O  0.02794039  0.83053884  0.11270539    -0.81100
O147        O  0.05789650  0.75317933  0.06744364    -0.81100
O148        O  0.94209119  0.74678228  0.06781879    -0.81200
Co149      Co  0.03653284  0.78930110  0.14839656     1.51500
Co150      Co  0.96393484  0.71047511  0.14851373     1.51700
Co151      Co  0.96061132  0.78625738  0.10254662     1.51600
Co152      Co  0.03954060  0.71362046  0.10217647     1.51500
O153        O  0.00015895  0.74991962  0.12539210    -1.43100
C154        C  0.08246345  0.77511678  0.08020847     1.08500
C155        C  0.91758972  0.72484272  0.08063593     1.08600
C156        C  0.01911882  0.82888520  0.07870094     1.08500
C157        C  0.98089574  0.67108619  0.07861364     1.08500
C158        C  0.26326304  0.78179515  0.23307208     0.01300
C159        C  0.23250583  0.76337097  0.21843886     0.01300
C160        C  0.21826699  0.73220582  0.23651757     0.01300
C161        C  0.23663242  0.71771359  0.26738007     0.01300
C162        C  0.26750559  0.73604641  0.28188235     0.01300
C163        C  0.28175827  0.76716554  0.26377510     0.01300
O164        O  0.19208687  0.68152364  0.50325159    -0.81100
O165        O  0.30778569  0.68193018  0.49637512    -0.81100
O166        O  0.22260924  0.63696696  0.58065029    -0.81200
O167        O  0.27763362  0.63659762  0.41918660    -0.81100
O168        O  0.25177377  0.68272204  0.55279930    -0.81200
O169        O  0.24809658  0.68235487  0.44675793    -0.81100
O170        O  0.33159069  0.63481977  0.46611256    -0.81100
O171        O  0.16865818  0.63444716  0.53374157    -0.81200
C172        C  0.16767038  0.66874136  0.52529465     1.08600
C173        C  0.33234239  0.66915922  0.47445468     1.08400
C174        C  0.23131971  0.67101462  0.57883788     1.08600
C175        C  0.26878090  0.67062153  0.42087447     1.08500
O176        O  0.21641663  0.61293147  0.41853183    -0.81100
O177        O  0.28399614  0.61367578  0.58140932    -0.81200
O178        O  0.19757060  0.56514413  0.50193573    -0.81100
O179        O  0.30334602  0.56552697  0.49831160    -0.81100
O180        O  0.33089978  0.61148814  0.52748638    -0.81200
O181        O  0.16954672  0.61061942  0.47249617    -0.81100
O182        O  0.24697772  0.56598628  0.44221053    -0.81100
O183        O  0.25382232  0.56641078  0.55787744    -0.81200
Co184      Co  0.21046447  0.64671531  0.46376845     1.51500
Co185      Co  0.28967608  0.64725824  0.53601074     1.51700
Co186      Co  0.21415057  0.60092803  0.53961348     1.51600
Co187      Co  0.28638994  0.60090826  0.46040092     1.51500
O188        O  0.25017305  0.62396699  0.49994120    -1.43100
C189        C  0.22493401  0.57866022  0.41772212     1.08500
C190        C  0.27576018  0.57934173  0.58231095     1.08600
C191        C  0.17160379  0.57659317  0.48127254     1.08500
C192        C  0.32916646  0.57737846  0.51896790     1.08500
C193        C  0.26347060  0.71773628  0.73311269     0.01300
C194        C  0.23286952  0.73617113  0.71822914     0.01300
C195        C  0.21848250  0.76734496  0.73618210     0.01300
C196        C  0.23667927  0.78198265  0.76707499     0.01300
C197        C  0.26737674  0.76361216  0.78189944     0.01300
C198        C  0.28162929  0.73229683  0.76405376     0.01300
O199        O  0.41828408  0.78375289  0.88578075    -0.81100
O200        O  0.58137331  0.71663104  0.88537488    -0.81100
O201        O  0.49846987  0.69745566  0.93376803    -0.81200
O202        O  0.50157820  0.80345453  0.93321733    -0.81100
O203        O  0.52761883  0.66958200  0.88797461    -0.81200
O204        O  0.47207486  0.83079246  0.88736738    -0.81100
O205        O  0.55786240  0.74714814  0.93245222    -0.81100
O206        O  0.44213950  0.75373092  0.93296712    -0.81200
C207        C  0.41754981  0.77558967  0.92012650     1.08600
C208        C  0.58235177  0.72517338  0.91961897     1.08400
C209        C  0.51900569  0.67145459  0.92202373     1.08600
C210        C  0.48079613  0.82921803  0.92139036     1.08500
O211        O  0.50287389  0.80764770  0.81693938    -0.81100
O212        O  0.49630527  0.69206375  0.81751638    -0.81200
O213        O  0.41911380  0.72222020  0.86275246    -0.81100
O214        O  0.58039792  0.77788817  0.86168140    -0.81100
O215        O  0.55259157  0.74825793  0.81617680    -0.81200
O216        O  0.44655777  0.75124164  0.81667756    -0.81100
O217        O  0.53326958  0.83162972  0.86385371    -0.81100
O218        O  0.46625458  0.66850125  0.86482411    -0.81200
Co219      Co  0.46345056  0.78943328  0.85184778     1.51500
Co220      Co  0.53596102  0.71055327  0.85192945     1.51700
Co221      Co  0.46043287  0.71398937  0.89838475     1.51600
Co222      Co  0.53935515  0.78651389  0.89767553     1.51500
O223        O  0.49979851  0.75013018  0.87497419    -1.43100
C224        C  0.52487026  0.83223915  0.82958372     1.08500
C225        C  0.47443399  0.66758162  0.83048733     1.08600
C226        C  0.42075614  0.73061964  0.82865119     1.08500
C227        C  0.57854894  0.76894413  0.82769781     1.08500
C228        C  0.73198046  0.26397388  0.71869903     0.01300
C229        C  0.76285918  0.28232496  0.73318538     0.01300
C230        C  0.78140033  0.26771451  0.76388845     0.01300
C231        C  0.76726191  0.23648897  0.78191914     0.01300
C232        C  0.73642801  0.21809933  0.76740436     0.01300
C233        C  0.71785895  0.23275300  0.73675532     0.01300
O234        O  0.88541757  0.41809677  0.78298404    -0.81100
O235        O  0.88591736  0.58167775  0.71664834    -0.81100
O236        O  0.93369574  0.49829241  0.69679358    -0.81200
O237        O  0.93364166  0.50109731  0.80282878    -0.81100
O238        O  0.88808298  0.52803285  0.66931865    -0.81200
O239        O  0.88781703  0.47173435  0.83031432    -0.81100
O240        O  0.93294351  0.55768639  0.74677667    -0.81100
O241        O  0.93259543  0.44174449  0.75286183    -0.81200
C242        C  0.91971245  0.41718266  0.77471806     1.08600
C243        C  0.92018766  0.58237581  0.72498063     1.08400
C244        C  0.92206017  0.51916187  0.67102224     1.08600
C245        C  0.92183641  0.48041055  0.82866312     1.08500
O246        O  0.81746668  0.50327273  0.80773212    -0.81100
O247        O  0.81749233  0.49705106  0.69188048    -0.81200
O248        O  0.86197468  0.41946294  0.72165341    -0.81100
O249        O  0.86251786  0.58048120  0.77796345    -0.81100
O250        O  0.81675143  0.55306973  0.74840702    -0.81200
O251        O  0.81644006  0.44733925  0.75116430    -0.81100
O252        O  0.86465676  0.53322517  0.83159076    -0.81100
O253        O  0.86447238  0.46672471  0.66801201    -0.81200
Co254      Co  0.85197037  0.46362749  0.78913479     1.51500
Co255      Co  0.85222423  0.53642316  0.71047320     1.51700
Co256      Co  0.89803505  0.46046589  0.71336384     1.51600
Co257      Co  0.89827066  0.53920707  0.78625380     1.51500
O258        O  0.87514615  0.49993335  0.74980524    -1.43100
C259        C  0.83034223  0.52507989  0.83235993     1.08500
C260        C  0.83022331  0.47518877  0.66722744     1.08600
C261        C  0.82799240  0.42138484  0.73046438     1.08500
C262        C  0.82852233  0.57888359  0.76916615     1.08500
O263        O  0.99664588  0.19200090  0.31714030    -0.81100
O264        O  0.00300761  0.30769318  0.31706603    -0.81100
O265        O  0.91929367  0.22205910  0.36235977    -0.81200
O266        O  0.08067506  0.27773404  0.36165928    -0.81100
O267        O  0.94682869  0.25136941  0.31653863    -0.81200
O268        O  0.05285739  0.24821863  0.31609905    -0.81100
O269        O  0.03347542  0.33152359  0.36398234    -0.81100
O270        O  0.96648961  0.16830739  0.36429517    -0.81200
C271        C  0.97471745  0.16748673  0.32996226     1.08600
C272        C  0.02497079  0.33228052  0.32972524     1.08400
C273        C  0.92099467  0.23069261  0.32831796     1.08600
C274        C  0.07879445  0.26889692  0.32765486     1.08500
O275        O  0.08172485  0.21634324  0.38526253    -0.81100
O276        O  0.91841111  0.28351168  0.38576835    -0.81200
O277        O  0.99859510  0.19713794  0.43338122    -0.81100
O278        O  0.00189969  0.30295893  0.43332873    -0.81100
O279        O  0.97227236  0.33056610  0.38772280    -0.81200
O280        O  0.02784455  0.16931161  0.38762430    -0.81100
O281        O  0.05820003  0.24675677  0.43237375    -0.81100
O282        O  0.94220437  0.25326965  0.43281051    -0.81200
Co283      Co  0.03625300  0.21039864  0.35172189     1.51500
Co284      Co  0.96364729  0.28936069  0.35193727     1.51700
Co285      Co  0.96058952  0.21370163  0.39802640     1.51600
Co286      Co  0.03963141  0.28622872  0.39767556     1.51500
O287        O  0.00003050  0.24992703  0.37484871    -1.43100
C288        C  0.08269412  0.22477402  0.41955326     1.08500
C289        C  0.91762027  0.27519423  0.42007188     1.08600
C290        C  0.01917481  0.17117313  0.42165859     1.08500
C291        C  0.98111712  0.32880471  0.42171433     1.08500
C292        C  0.23667037  0.28151919  0.23248831     0.01300
C293        C  0.21833172  0.26727456  0.26348023     0.01300
C294        C  0.23293500  0.23664246  0.28213961     0.01300
C295        C  0.26408883  0.21842127  0.26806639     0.01300
C296        C  0.28244696  0.23268396  0.23710460     0.01300
C297        C  0.26781624  0.26328733  0.21839947     0.01300
O298        O  0.19218330  0.31653779  0.99696087    -0.81100
O299        O  0.30823018  0.31653975  0.00373465    -0.81100
O300        O  0.22264369  0.36109895  0.91974874    -0.81200
O301        O  0.27789344  0.36149389  0.08084502    -0.81100
O302        O  0.25207334  0.31548907  0.94760385    -0.81200
O303        O  0.24846025  0.31571861  0.05321408    -0.81100
O304        O  0.33181802  0.36376146  0.03392190    -0.81100
O305        O  0.16867734  0.36367405  0.96660948    -0.81200
C306        C  0.16770136  0.32937851  0.97500035     1.08600
C307        C  0.33273105  0.32942991  0.02562717     1.08400
C308        C  0.23142769  0.32706781  0.92167231     1.08600
C309        C  0.26918567  0.32743693  0.07905418     1.08500
O310        O  0.21662263  0.38503844  0.08179357    -0.81100
O311        O  0.28391310  0.38464135  0.91864671    -0.81200
O312        O  0.19738185  0.43288361  0.99842981    -0.81100
O313        O  0.30316125  0.43285698  0.00186430    -0.81100
O314        O  0.33092339  0.38709814  0.97251504    -0.81200
O315        O  0.16960205  0.38730099  0.02794562    -0.81100
O316        O  0.24687282  0.43210261  0.05802484    -0.81100
O317        O  0.25364401  0.43182365  0.94225296    -0.81200
Co318      Co  0.21066171  0.35130895  0.03646739     1.51500
Co319      Co  0.28984880  0.35112736  0.96412687     1.51700
Co320      Co  0.21409863  0.39719986  0.96068598     1.51600
Co321      Co  0.28642580  0.39737116  0.03974440     1.51500
O322        O  0.25025785  0.37423731  0.00025920    -1.43100
C323        C  0.22494041  0.41936332  0.08256424     1.08500
C324        C  0.27556484  0.41896574  0.91773494     1.08600
C325        C  0.17141447  0.42130504  0.01904325     1.08500
C326        C  0.32910613  0.42115212  0.98126121     1.08500
C327        C  0.23306468  0.26319479  0.78205903     0.01300
C328        C  0.21842247  0.23248753  0.76354442     0.01300
C329        C  0.23656584  0.21824603  0.73243066     0.01300
C330        C  0.26748593  0.23658817  0.71802757     0.01300
C331        C  0.28195442  0.26747182  0.73642090     0.01300
C332        C  0.26381366  0.28166757  0.76754787     0.01300
O333        O  0.58171450  0.28340901  0.61430359    -0.81100
O334        O  0.41850350  0.21659998  0.61438454    -0.81100
O335        O  0.50159319  0.19687670  0.56675809    -0.81200
O336        O  0.49856172  0.30297099  0.56645164    -0.81100
O337        O  0.47221471  0.16938090  0.61257398    -0.81200
O338        O  0.52797666  0.33060830  0.61218816    -0.81100
O339        O  0.44226761  0.24680673  0.56728073    -0.81100
O340        O  0.55799541  0.25300874  0.56728309    -0.81200
C341        C  0.58253231  0.27498889  0.58001515     1.08600
C342        C  0.41768178  0.22495737  0.58008343     1.08400
C343        C  0.48093702  0.17102697  0.57855288     1.08600
C344        C  0.51919483  0.32888354  0.57817770     1.08500
O345        O  0.49699176  0.30786085  0.68270496    -0.81100
O346        O  0.50319321  0.19234217  0.68301157    -0.81200
O347        O  0.58075547  0.22208770  0.63790719    -0.81100
O348        O  0.41944708  0.27805055  0.63771634    -0.81100
O349        O  0.44700156  0.24880526  0.68357427    -0.81200
O350        O  0.55307310  0.25157053  0.68356748    -0.81100
O351        O  0.46670916  0.33167431  0.63566982    -0.81100
O352        O  0.53350813  0.16842730  0.63600134    -0.81200
Co353      Co  0.53643492  0.28945145  0.64802073     1.51500
Co354      Co  0.46374319  0.21070964  0.64821016     1.51700
Co355      Co  0.53954079  0.21361485  0.60213781     1.51600
Co356      Co  0.46067821  0.28635137  0.60195707     1.51500
O357        O  0.50009663  0.25002680  0.62506087    -1.43100
C358        C  0.47511114  0.33245043  0.66995117     1.08500
C359        C  0.52514200  0.16773426  0.67029790     1.08600
C360        C  0.57891651  0.23080007  0.67193901     1.08500
C361        C  0.42114830  0.26946529  0.67177150     1.08500
O362        O  0.31721225  0.99702180  0.19240226    -0.81100
O363        O  0.31737190  0.00332637  0.30821757    -0.81100
O364        O  0.36155089  0.91941176  0.22228805    -0.81200
O365        O  0.36234331  0.08056334  0.27833367    -0.81100
O366        O  0.31612804  0.94732538  0.25193756    -0.81200
O367        O  0.31652715  0.05318053  0.24882659    -0.81100
O368        O  0.36457224  0.03331310  0.33198842    -0.81100
O369        O  0.36416739  0.96661995  0.16859502    -0.81200
C370        C  0.32992828  0.97507744  0.16781083     1.08600
C371        C  0.33027390  0.02510243  0.33282056     1.08400
C372        C  0.32759556  0.92135066  0.23122311     1.08600
C373        C  0.32832656  0.07894198  0.26964094     1.08500
O374        O  0.38570811  0.08173477  0.21695925    -0.81100
O375        O  0.38515155  0.91812104  0.28357705    -0.81200
O376        O  0.43337147  0.99813985  0.19737734    -0.81100
O377        O  0.43351241  0.00123747  0.30299507    -0.81100
O378        O  0.38786839  0.97187513  0.33078106    -0.81200
O379        O  0.38786341  0.02791031  0.16976078    -0.81100
O380        O  0.43273069  0.05775105  0.24706416    -0.81100
O381        O  0.43227253  0.94174857  0.25339533    -0.81200
Co382      Co  0.35198590  0.03643186  0.21089566     1.51500
Co383      Co  0.35181443  0.96368736  0.28972365     1.51700
Co384      Co  0.39768833  0.96038306  0.21393031     1.51600
Co385      Co  0.39809731  0.03929883  0.28657955     1.51500
O386        O  0.37488191  0.99995719  0.25027216    -1.43100
C387        C  0.41998637  0.08245802  0.22529425     1.08500
C388        C  0.41942380  0.91721424  0.27527448     1.08600
C389        C  0.42182417  0.01897364  0.17155107     1.08500
C390        C  0.42188636  0.98054848  0.32888820     1.08500
C391        C  0.48275798  0.03179622  0.51351603     0.01300
C392        C  0.46862013  0.01380896  0.48224916     0.01300
C393        C  0.48684662  0.98277268  0.46790298     0.01300
C394        C  0.51745701  0.96806490  0.48648698     0.01300
C395        C  0.53169439  0.98614803  0.51763036     0.01300
C396        C  0.51339010  0.01707854  0.53206988     0.01300
O397        O  0.44188316  0.74644579  0.43282404    -0.81100
O398        O  0.55792342  0.75340605  0.43281146    -0.81100
O399        O  0.47240691  0.66935685  0.38805322    -0.81200
O400        O  0.52741054  0.83051112  0.38802677    -0.81100
O401        O  0.50181034  0.69704707  0.43379669    -0.81200
O402        O  0.49803878  0.80277978  0.43373014    -0.81100
O403        O  0.58145430  0.78368120  0.38566347    -0.81100
O404        O  0.41837019  0.71615731  0.38564463    -0.81200
C405        C  0.41744943  0.72444109  0.41995155     1.08600
C406        C  0.58244742  0.77527505  0.41993898     1.08400
C407        C  0.48114358  0.67114822  0.42207865     1.08600
C408        C  0.51871491  0.82866521  0.42205088     1.08500
O409        O  0.46612912  0.83145556  0.36459063    -0.81100
O410        O  0.53364780  0.66841236  0.36460686    -0.81200
O411        O  0.44696507  0.74816317  0.31653957    -0.81100
O412        O  0.55280401  0.75163336  0.31651238    -0.81100
O413        O  0.58059082  0.72228543  0.36218419    -0.81200
O414        O  0.41917811  0.77755055  0.36223225    -0.81100
O415        O  0.49642151  0.80774417  0.31748625    -0.81100
O416        O  0.50339081  0.69212890  0.31751889    -0.81200
Co417      Co  0.46024364  0.78606161  0.39818457     1.51500
Co418      Co  0.53954674  0.71380404  0.39818430     1.51700
Co419      Co  0.46378394  0.71037237  0.35211421     1.51600
Co420      Co  0.53602297  0.78946892  0.35210056     1.51500
O421        O  0.49989712  0.74993154  0.37517329    -1.43100
C422        C  0.47443949  0.83225212  0.33028823     1.08500
C423        C  0.52534412  0.66762409  0.33031439     1.08600
C424        C  0.42104063  0.76883522  0.32819352     1.08500
C425        C  0.57872091  0.73096370  0.32814657     1.08500
O426        O  0.56726447  0.94200397  0.75336319    -0.81100
O427        O  0.56731854  0.05792043  0.74692971    -0.81100
O428        O  0.61212354  0.97202952  0.83071027    -0.81200
O429        O  0.61181282  0.02763060  0.66943913    -0.81100
O430        O  0.56647013  0.00161876  0.80315033    -0.81200
O431        O  0.56630174  0.99820577  0.69734081    -0.81100
O432        O  0.61432547  0.08153885  0.71653777    -0.81100
O433        O  0.61428256  0.91814464  0.78356079    -0.81200
C434        C  0.58002146  0.91735644  0.77516415     1.08600
C435        C  0.58008296  0.08247050  0.72500512     1.08400
C436        C  0.57813614  0.98086945  0.82899845     1.08600
C437        C  0.57782680  0.01886708  0.67139798     1.08500
O438        O  0.63535438  0.96622693  0.66832448    -0.81100
O439        O  0.63570126  0.03338749  0.83164771    -0.81200
O440        O  0.68343695  0.94674853  0.75163069    -0.81100
O441        O  0.68350478  0.05266383  0.74818534    -0.81100
O442        O  0.63800744  0.08047868  0.77781786    -0.81200
O443        O  0.63771862  0.91915046  0.72219099    -0.81100
O444        O  0.68245333  0.99647902  0.69194201    -0.81100
O445        O  0.68266004  0.00300452  0.80782688    -0.81200
Co446      Co  0.60185523  0.96032137  0.71381175     1.51500
Co447      Co  0.60204090  0.03941924  0.78636171     1.51700
Co448      Co  0.64794349  0.96350277  0.78950959     1.51600
Co449      Co  0.64784858  0.03605999  0.71045229     1.51500
O450        O  0.62493261  0.99982632  0.75004122    -1.43100
C451        C  0.66962694  0.97456942  0.66739472     1.08500
C452        C  0.66994982  0.02494305  0.83241251     1.08600
C453        C  0.67172406  0.92088402  0.73090945     1.08500
C454        C  0.67196800  0.07860749  0.76891011     1.08500
C455        C  0.51363314  0.98222276  0.96850863     0.01300
C456        C  0.48247493  0.96811487  0.98666529     0.01300
C457        C  0.46823716  0.98637906  0.01772546     0.01300
C458        C  0.48697277  0.01689917  0.03248889     0.01300
C459        C  0.51811406  0.03104208  0.01434036     0.01300
C460        C  0.53231128  0.01279564  0.98323552     0.01300
O461        O  0.44256173  0.25284034  0.06766032    -0.81100
O462        O  0.55813234  0.24620101  0.06747728    -0.81100
O463        O  0.47281442  0.33043060  0.11238166    -0.81200
O464        O  0.52806001  0.16895394  0.11291384    -0.81100
O465        O  0.50204901  0.30262092  0.06661779    -0.81200
O466        O  0.49870189  0.19635880  0.06702078    -0.81100
O467        O  0.58188489  0.21600488  0.11460169    -0.81100
O468        O  0.41898393  0.28341980  0.11467371    -0.81200
C469        C  0.41808319  0.27488127  0.08041658     1.08600
C470        C  0.58265850  0.22426517  0.08027520     1.08400
C471        C  0.48150218  0.32861561  0.07835178     1.08600
C472        C  0.51935587  0.17051129  0.07888576     1.08500
O473        O  0.46677726  0.16823516  0.13634915    -0.81100
O474        O  0.53414681  0.33137130  0.13571242    -0.81200
O475        O  0.44752293  0.25164525  0.18396200    -0.81100
O476        O  0.55350650  0.24839910  0.18376568    -0.81100
O477        O  0.58114136  0.27748085  0.13784827    -0.81200
O478        O  0.41979257  0.22214222  0.13833140    -0.81100
O479        O  0.49716057  0.19210625  0.18331779    -0.81100
O480        O  0.50389206  0.30783873  0.18289795    -0.81200
Co481      Co  0.46089635  0.21341389  0.10248634     1.51500
Co482      Co  0.53992814  0.28590234  0.10210168     1.51700
Co483      Co  0.46430356  0.28939325  0.14831367     1.51600
Co484      Co  0.53666058  0.21030881  0.14847716     1.51500
O485        O  0.50044557  0.24974991  0.12532469    -1.43100
C486        C  0.47514563  0.16755274  0.17063693     1.08500
C487        C  0.52585495  0.33230479  0.17002248     1.08600
C488        C  0.42161703  0.23094694  0.17234386     1.08500
C489        C  0.57936864  0.26901128  0.17192947     1.08500
O490        O  0.16868185  0.13572870  0.46653719    -0.81100
O491        O  0.33177327  0.13602174  0.53339712    -0.81100
O492        O  0.24878627  0.18353494  0.55308813    -0.81200
O493        O  0.25150231  0.18358363  0.44699312    -0.81100
O494        O  0.27812002  0.13765021  0.58056887    -0.81200
O495        O  0.22235168  0.13764853  0.41938052    -0.81100
O496        O  0.30792064  0.18311058  0.50314920    -0.81100
O497        O  0.19232317  0.18288962  0.49686123    -0.81200
C498        C  0.16785019  0.17007374  0.47483613     1.08600
C499        C  0.33248106  0.17035228  0.52508124     1.08400
C500        C  0.26946342  0.17171411  0.57891223     1.08600
C501        C  0.23092491  0.17173230  0.42109974     1.08500
O502        O  0.25348299  0.06723973  0.44238212    -0.81100
O503        O  0.24731864  0.06712918  0.55762087    -0.81200
O504        O  0.16964051  0.11237421  0.52788743    -0.81100
O505        O  0.33100756  0.11274176  0.47199709    -0.81100
O506        O  0.30363990  0.06672643  0.50119008    -0.81200
O507        O  0.19729077  0.06652908  0.49862789    -0.81100
O508        O  0.28365775  0.11435009  0.41850889    -0.81100
O509        O  0.21689407  0.11416122  0.58146984    -0.81200
Co510      Co  0.21396025  0.10195375  0.46064417     1.51500
Co511      Co  0.28669399  0.10203444  0.53926907     1.51700
Co512      Co  0.21084435  0.14809674  0.53632611     1.51600
Co513      Co  0.28959101  0.14828020  0.46366614     1.51500
O514        O  0.25027544  0.12509738  0.49998148    -1.43100
C515        C  0.27538386  0.08000860  0.41782895     1.08500
C516        C  0.22530331  0.07983631  0.58216981     1.08600
C517        C  0.17138742  0.07830917  0.51923194     1.08500
C518        C  0.32946357  0.07866080  0.48057304     1.08500
C519        C  0.76354118  0.78175630  0.26770621     0.01300
C520        C  0.78176368  0.76750599  0.23662963     0.01300
C521        C  0.76695854  0.73704486  0.21783870     0.01300
C522        C  0.73592514  0.71879449  0.23203812     0.01300
C523        C  0.71767853  0.73303024  0.26308567     0.01300
C524        C  0.73234197  0.76363878  0.28177744     0.01300
O525        O  0.61471407  0.58201341  0.28365556    -0.81100
O526        O  0.61503821  0.41859497  0.21644898    -0.81100
O527        O  0.56659698  0.50192590  0.19735042    -0.81200
O528        O  0.56668561  0.49848375  0.30289709    -0.81100
O529        O  0.61220263  0.47249073  0.16948453    -0.81200
O530        O  0.61218229  0.52815260  0.33067413    -0.81100
O531        O  0.56787841  0.44217044  0.24667308    -0.81100
O532        O  0.56763562  0.55815276  0.25354473    -0.81200
C533        C  0.58043725  0.58276193  0.27538854     1.08600
C534        C  0.58076943  0.41762355  0.22477980     1.08400
C535        C  0.57819542  0.48121608  0.17142221     1.08600
C536        C  0.57820703  0.51927603  0.32879495     1.08500
O537        O  0.68287917  0.49707925  0.30814401    -0.81100
O538        O  0.68273953  0.50390468  0.19185617    -0.81200
O539        O  0.63807493  0.58089637  0.22230507    -0.81100
O540        O  0.63858188  0.41987168  0.27774942    -0.81100
O541        O  0.68402063  0.44779697  0.24816099    -0.81200
O542        O  0.68379768  0.55333698  0.25184476    -0.81100
O543        O  0.63579619  0.46681012  0.33174014    -0.81100
O544        O  0.63546524  0.53394410  0.16833040    -0.81200
Co545      Co  0.64823403  0.53661714  0.28965148     1.51500
Co546      Co  0.64832825  0.46420762  0.21041672     1.51700
Co547      Co  0.60213598  0.53981912  0.21389560     1.51600
Co548      Co  0.60240170  0.46075396  0.28624728     1.51500
O549        O  0.62529705  0.50035341  0.25005332    -1.43100
C550        C  0.67004821  0.47518472  0.33268024     1.08500
C551        C  0.66975960  0.52573976  0.16733810     1.08600
C552        C  0.67207789  0.57915231  0.23106679     1.08500
C553        C  0.67254465  0.42184950  0.26886982     1.08500
C554        C  0.78197866  0.23270544  0.26346650     0.01300
C555        C  0.76351180  0.21802726  0.23275520     0.01300
C556        C  0.73274879  0.23643734  0.21810919     0.01300
C557        C  0.71872912  0.26784980  0.23595643     0.01300
C558        C  0.73725767  0.28255569  0.26661119     0.01300
C559        C  0.76792086  0.26408253  0.28133600     0.01300
C560        C  0.76709549  0.76307864  0.71733772     0.01300
C561        C  0.78175110  0.73238574  0.73586307     0.01300
C562        C  0.76347732  0.71804518  0.76682556     0.01300
C563        C  0.73238468  0.73621551  0.78105626     0.01300
C564        C  0.71763377  0.76680354  0.76244496     0.01300
C565        C  0.73593898  0.78122838  0.73152953     0.01300
O566        O  0.18257216  0.99697566  0.80802046    -0.81100
O567        O  0.18295078  0.00324090  0.69191803    -0.81100
O568        O  0.13805432  0.91960277  0.77785911    -0.81200
O569        O  0.13807967  0.08058511  0.72181760    -0.81100
O570        O  0.18370369  0.94733589  0.74844458    -0.81200
O571        O  0.18362750  0.05297499  0.75154146    -0.81100
O572        O  0.13591417  0.03337881  0.66801494    -0.81100
O573        O  0.13542829  0.96680060  0.83162637    -0.81200
C574        C  0.16969379  0.97515542  0.83260020     1.08600
C575        C  0.17019809  0.02504628  0.66725100     1.08400
C576        C  0.17205426  0.92143441  0.76911322     1.08600
C577        C  0.17202901  0.07882996  0.73076339     1.08500
O578        O  0.11444366  0.08185491  0.78308417    -0.81100
O579        O  0.11477087  0.91830360  0.71645836    -0.81200
O580        O  0.06641367  0.99859411  0.80251713    -0.81100
O581        O  0.06674655  0.00152676  0.69662991    -0.81100
O582        O  0.11250617  0.97195874  0.66917861    -0.81200
O583        O  0.11191535  0.02818807  0.83032284    -0.81100
O584        O  0.06747360  0.05803115  0.75274881    -0.81100
O585        O  0.06757147  0.94209821  0.74647178    -0.81200
Co586      Co  0.14798215  0.03646777  0.78931996     1.51500
Co587      Co  0.14829224  0.96373365  0.71042093     1.51700
Co588      Co  0.10204554  0.96068524  0.78609067     1.51600
Co589      Co  0.10221584  0.03946686  0.71333339     1.51500
O590        O  0.12512929  0.00009232  0.74978868    -1.43100
C591        C  0.08019660  0.08265009  0.77466023     1.08500
C592        C  0.08046676  0.91747783  0.72465795     1.08600
C593        C  0.07794515  0.01933410  0.82844610     1.08500
C594        C  0.07850551  0.98075516  0.67081312     1.08500
O595        O  0.75298398  0.43312668  0.55777038    -0.81100
O596        O  0.74672625  0.43305817  0.44244143    -0.81100
O597        O  0.83058460  0.38794578  0.52793204    -0.81200
O598        O  0.66923040  0.38765483  0.47227557    -0.81100
O599        O  0.80287702  0.43374014  0.49871993    -0.81200
O600        O  0.69673308  0.43360240  0.50147806    -0.81100
O601        O  0.71643606  0.38597880  0.41860523    -0.81100
O602        O  0.78340338  0.38612134  0.58158721    -0.81200
C603        C  0.77501440  0.42043881  0.58227810     1.08600
C604        C  0.72478725  0.42030621  0.41788392     1.08400
C605        C  0.82878458  0.42201746  0.51931911     1.08600
C606        C  0.67091646  0.42175108  0.48081593     1.08500
O607        O  0.66844475  0.36426060  0.53360906    -0.81100
O608        O  0.83146489  0.36442253  0.46660955    -0.81200
O609        O  0.75147788  0.31672083  0.55342959    -0.81100
O610        O  0.74858030  0.31669150  0.44687324    -0.81100
O611        O  0.77778821  0.36264002  0.41941315    -0.81200
O612        O  0.72212547  0.36269938  0.58080260    -0.81100
O613        O  0.69226773  0.31719921  0.50322530    -0.81100
O614        O  0.80780908  0.31732621  0.49697036    -0.81200
Co615      Co  0.71357370  0.39824981  0.53948031     1.51500
Co616      Co  0.78621152  0.39828203  0.46073438     1.51700
Co617      Co  0.78938055  0.35217233  0.53645276     1.51600
Co618      Co  0.71056366  0.35204296  0.46376152     1.51500
O619        O  0.74992882  0.37514947  0.50011096    -1.43100
C620        C  0.66770917  0.32992954  0.52520241     1.08500
C621        C  0.83231846  0.33009746  0.47498480     1.08600
C622        C  0.73082616  0.32864037  0.57926961     1.08500
C623        C  0.76912871  0.32858157  0.42098016     1.08500
C624        C  0.03217757  0.51274001  0.48280000     0.01300
C625        C  0.01773115  0.53134145  0.51355715     0.01300
C626        C  0.98645992  0.51741085  0.53162540     0.01300
C627        C  0.96783954  0.48671735  0.51705942     0.01300
C628        C  0.98221420  0.46820514  0.48619330     0.01300
C629        C  0.01345211  0.48218570  0.46810690     0.01300
O630        O  0.83134529  0.63592849  0.03380081    -0.81100
O631        O  0.66872857  0.63631741  0.96554685    -0.81100
O632        O  0.75229001  0.68406406  0.94663931    -0.81200
O633        O  0.74806067  0.68417942  0.05253546    -0.81100
O634        O  0.72289004  0.63835893  0.91887017    -0.81200
O635        O  0.77717341  0.63841662  0.08044477    -0.81100
O636        O  0.69228859  0.68339378  0.99601402    -0.81100
O637        O  0.80808998  0.68309900  0.00330214    -0.81200
C638        C  0.83238168  0.67023443  0.02544996     1.08600
C639        C  0.66784183  0.67061253  0.97400372     1.08400
C640        C  0.73167223  0.67239066  0.92069635     1.08600
C641        C  0.76854849  0.67248831  0.07854603     1.08500
O642        O  0.74618445  0.56782210  0.05749408    -0.81100
O643        O  0.75352404  0.56766627  0.94184365    -0.81200
O644        O  0.83081424  0.61229968  0.97245411    -0.81100
O645        O  0.66915371  0.61287937  0.02689820    -0.81100
O646        O  0.69687875  0.56702882  0.99766613    -0.81200
O647        O  0.80270176  0.56676962  0.00171833    -0.81100
O648        O  0.71585901  0.61499890  0.08103682    -0.81100
O649        O  0.78412067  0.61463241  0.91830477    -0.81200
Co650      Co  0.78587054  0.60242305  0.03941461     1.51500
Co651      Co  0.71399361  0.60251905  0.95992834     1.51700
Co652      Co  0.78986976  0.64836736  0.96366637     1.51600
Co653      Co  0.71029881  0.64867148  0.03563361     1.51500
O654        O  0.75000518  0.62551961  0.99965084    -1.43100
C655        C  0.72420172  0.58067358  0.08194661     1.08500
C656        C  0.77562729  0.58034887  0.91742733     1.08600
C657        C  0.82880415  0.57828312  0.98125768     1.08500
C658        C  0.67094800  0.57880419  0.01825067     1.08500
C659        C  0.51366869  0.48286577  0.03210901     0.01300
C660        C  0.53175116  0.51388222  0.01762616     0.01300
C661        C  0.51709272  0.53210585  0.98677276     0.01300
C662        C  0.48623041  0.51747496  0.96853194     0.01300
C663        C  0.46822302  0.48636935  0.98295343     0.01300
C664        C  0.48287767  0.46816255  0.01382304     0.01300
O665        O  0.80779319  0.18238924  0.99693878    -0.81100
O666        O  0.69215648  0.18225671  0.00313547    -0.81100
O667        O  0.77798523  0.13728454  0.91933428    -0.81200
O668        O  0.72199401  0.13693182  0.08051831    -0.81100
O669        O  0.74853618  0.18310935  0.94687454    -0.81200
O670        O  0.75130898  0.18292184  0.05321237    -0.81100
O671        O  0.66843216  0.13504175  0.03323486    -0.81100
O672        O  0.83158191  0.13530093  0.96659368    -0.81200
C673        C  0.83234543  0.16963269  0.97496165     1.08600
C674        C  0.66764082  0.16939851  0.02504170     1.08400
C675        C  0.76922168  0.17132641  0.92100792     1.08600
C676        C  0.73066022  0.17099668  0.07902137     1.08500
O677        O  0.78333572  0.11363049  0.08151040    -0.81100
O678        O  0.71669210  0.11389480  0.91826392    -0.81200
O679        O  0.80290703  0.06601700  0.99844893    -0.81100
O680        O  0.69717573  0.06589452  0.00107726    -0.81100
O681        O  0.66945769  0.11170319  0.97186045    -0.81200
O682        O  0.83053749  0.11176809  0.02786282    -0.81100
O683        O  0.75316952  0.06653617  0.05756362    -0.81100
O684        O  0.74693870  0.06677623  0.94202180    -0.81200
Co685      Co  0.78932442  0.14753532  0.03635223     1.51500
Co686      Co  0.71062045  0.14758972  0.96356097     1.51700
Co687      Co  0.78635547  0.10150851  0.96051569     1.51600
Co688      Co  0.71370099  0.10128744  0.03917056     1.51500
O689        O  0.75000259  0.12452658  0.99989916    -1.43100
C690        C  0.77501255  0.07929931  0.08220340     1.08500
C691        C  0.72503129  0.07957518  0.91747716     1.08600
C692        C  0.82872818  0.07770424  0.01918342     1.08500
C693        C  0.67127585  0.07762350  0.98046343     1.08500
O694        O  0.36489636  0.53334532  0.66853912    -0.81100
O695        O  0.36458364  0.46601131  0.83178573    -0.81100
O696        O  0.31687098  0.44668330  0.74813449    -0.81200
O697        O  0.31640351  0.55229097  0.75179876    -0.81100
O698        O  0.36250203  0.41910304  0.77776308    -0.81200
O699        O  0.36198495  0.58028820  0.72250953    -0.81100
O700        O  0.31738960  0.49604647  0.80805735    -0.81100
O701        O  0.31784756  0.50293051  0.69201801    -0.81200
C702        C  0.33067343  0.52486709  0.66753923     1.08600
C703        C  0.33026042  0.47415010  0.83259221     1.08400
C704        C  0.32852386  0.42085243  0.76891360     1.08600
C705        C  0.32798352  0.57829784  0.73121829     1.08500
O706        O  0.43252866  0.55788888  0.75380399    -0.81100
O707        O  0.43304154  0.44207289  0.74692935    -0.81200
O708        O  0.38866499  0.47206427  0.66954666    -0.81100
O709        O  0.38769962  0.52751689  0.83090904    -0.81100
O710        O  0.43358173  0.49828762  0.80329317    -0.81200
O711        O  0.43401670  0.50177190  0.69749430    -0.81100
O712        O  0.38524288  0.58139527  0.78391657    -0.81100
O713        O  0.38614003  0.41819494  0.71653850    -0.81200
Co714      Co  0.39818110  0.53940383  0.71409716     1.51500
Co715      Co  0.39825937  0.46028882  0.78643464     1.51700
Co716      Co  0.35252224  0.46348042  0.71047975     1.51600
Co717      Co  0.35188060  0.53580956  0.78973297     1.51500
O718        O  0.37520819  0.49974382  0.75018968    -1.43100
C719        C  0.41954035  0.58237655  0.77569040     1.08500
C720        C  0.42037716  0.41749032  0.72495493     1.08600
C721        C  0.42260917  0.48103686  0.67150872     1.08500
C722        C  0.42174952  0.51894472  0.82916829     1.08500
O723        O  0.78361560  0.88583995  0.41835337    -0.81100
O724        O  0.71665063  0.88552970  0.58135298    -0.81100
O725        O  0.69680282  0.93333592  0.49850745    -0.81200
O726        O  0.80321080  0.93365336  0.50139550    -0.81100
O727        O  0.66942403  0.88734255  0.52774173    -0.81200
O728        O  0.83080909  0.88782949  0.47200636    -0.81100
O729        O  0.74678956  0.93275536  0.55767772    -0.81100
O730        O  0.75318355  0.93286978  0.44216694    -0.81200
C731        C  0.77519294  0.92015028  0.41762962     1.08600
C732        C  0.72483756  0.91989324  0.58216770     1.08400
C733        C  0.67097256  0.92141955  0.51913065     1.08600
C734        C  0.82911080  0.92187808  0.48075725     1.08500
O735        O  0.80821309  0.81725325  0.50298123    -0.81100
O736        O  0.69251068  0.81696674  0.49650528    -0.81200
O737        O  0.72241498  0.86227126  0.41923631    -0.81100
O738        O  0.77798145  0.86226431  0.58037974    -0.81100
O739        O  0.74888515  0.81639894  0.55259457    -0.81200
O740        O  0.75184284  0.81647268  0.44677357    -0.81100
O741        O  0.83177651  0.86441109  0.53335850    -0.81100
O742        O  0.66866101  0.86407198  0.46631957    -0.81200
Co743      Co  0.78967996  0.85200848  0.46353342     1.51500
Co744      Co  0.71080777  0.85174105  0.53604791     1.51700
Co745      Co  0.71378725  0.89798776  0.46047844     1.51600
Co746      Co  0.78641913  0.89811084  0.53927316     1.51500
O747        O  0.75017405  0.87498385  0.49982795    -1.43100
C748        C  0.83268129  0.83008174  0.52498606     1.08500
C749        C  0.66792449  0.82974619  0.47462601     1.08600
C750        C  0.73111101  0.82821364  0.42096119     1.08500
C751        C  0.76945776  0.82817442  0.57851596     1.08500
O752        O  0.06752483  0.55775722  0.24694129    -0.81100
O753        O  0.06704276  0.44206194  0.25283526    -0.81100
O754        O  0.11263042  0.52791109  0.16935129    -0.81200
O755        O  0.11215231  0.47155104  0.33045727    -0.81100
O756        O  0.06664528  0.49869705  0.19670504    -0.81200
O757        O  0.06652801  0.50123665  0.30297984    -0.81100
O758        O  0.11398328  0.41797387  0.28305580    -0.81100
O759        O  0.11466643  0.58146697  0.21677322    -0.81200
C760        C  0.08037631  0.58233322  0.22508517     1.08600
C761        C  0.07970867  0.41737440  0.27470722     1.08400
C762        C  0.07858434  0.51936480  0.17091156     1.08600
C763        C  0.07818066  0.48044078  0.32879298     1.08500
O764        O  0.13582912  0.53281695  0.33163573    -0.81100
O765        O  0.13570455  0.46639665  0.16821554    -0.81200
O766        O  0.18369945  0.55245658  0.24873054    -0.81100
O767        O  0.18326729  0.44630093  0.25119697    -0.81100
O768        O  0.13737706  0.41902157  0.22174705    -0.81200
O769        O  0.13803037  0.58020644  0.27812236    -0.81100
O770        O  0.18273826  0.50236776  0.30773523    -0.81100
O771        O  0.18284062  0.49642326  0.19216428    -0.81200
Co772      Co  0.10213041  0.53909180  0.28639078     1.51500
Co773      Co  0.10185765  0.46046574  0.21340724     1.51700
Co774      Co  0.14827207  0.53604353  0.21067251     1.51600
Co775      Co  0.14788517  0.46308381  0.28919749     1.51500
O776        O  0.12502594  0.49966912  0.24991338    -1.43100
C777        C  0.17005563  0.52424499  0.33240583     1.08500
C778        C  0.17002323  0.47458164  0.16752676     1.08600
C779        C  0.17203217  0.57837868  0.26941493     1.08500
C780        C  0.17139560  0.42053058  0.23043603     1.08500
C781        C  0.48713374  0.48282739  0.53212792     0.01300
C782        C  0.46859415  0.51359058  0.51768508     0.01300
C783        C  0.48269769  0.53180917  0.48656842     0.01300
C784        C  0.51342708  0.51731457  0.46797146     0.01300
C785        C  0.53186276  0.48640844  0.48230633     0.01300
C786        C  0.51780559  0.46826682  0.51350811     0.01300
C787        C  0.98647354  0.48275927  0.96806106     0.01300
C788        C  0.01752774  0.46833533  0.98611546     0.01300
C789        C  0.03229351  0.48670895  0.01685276     0.01300
C790        C  0.01415798  0.51771078  0.03141747     0.01300
C791        C  0.98297170  0.53200786  0.01345655     0.01300
C792        C  0.96824153  0.51364267  0.98270817     0.01300
C793        C  0.06993416  0.55202651  0.11106838    -0.14300
C794        C  0.05503795  0.52972463  0.13945332     0.07800
C795        C  0.02119434  0.51171903  0.13375859    -0.14300
C796        C  0.00543197  0.51154435  0.09859907    -0.14300
C797        C  0.02333209  0.52945508  0.06918667     0.07800
C798        C  0.05427195  0.55159560  0.07585522    -0.14300
H799        H  0.09567614  0.56688658  0.11501627     0.11800
H800        H  0.00895271  0.49476071  0.15524158     0.11800
H801        H  0.98132462  0.49444240  0.09348595     0.11800
H802        H  0.06809940  0.56562852  0.05324525     0.11800
C803        C  0.43298968  0.44746270  0.61238521    -0.14300
C804        C  0.44670564  0.47106966  0.64032064     0.07800
C805        C  0.47964853  0.49059794  0.63430019    -0.14300
C806        C  0.49549286  0.49077004  0.59917266    -0.14300
C807        C  0.47858128  0.47134757  0.57011293     0.07800
C808        C  0.44873572  0.44786793  0.57719377    -0.14300
H809        H  0.40798216  0.43147546  0.61662993     0.11800
H810        H  0.49095675  0.50865634  0.65542425     0.11800
H811        H  0.51872154  0.50895009  0.59373462     0.11800
H812        H  0.43565914  0.43270194  0.55484842     0.11800
C813        C  0.49484683  0.51064753  0.90141291    -0.14300
C814        C  0.47723541  0.52908101  0.93070659     0.07800
C815        C  0.44663888  0.55167065  0.92391380    -0.14300
C816        C  0.43095477  0.55206273  0.88870916    -0.14300
C817        C  0.44548289  0.52927879  0.86048568     0.07800
C818        C  0.47906074  0.51078581  0.86627055    -0.14300
H819        H  0.51868894  0.49319717  0.90663138     0.11800
H820        H  0.43304492  0.56610376  0.94644115     0.11800
H821        H  0.40543741  0.56729279  0.88465868     0.11800
H822        H  0.49101342  0.49343231  0.84490606     0.11800
C823        C  0.88776949  0.56772707  0.94758193    -0.14300
C824        C  0.86002588  0.55419649  0.97145946     0.07800
C825        C  0.86624508  0.52150045  0.99138019    -0.14300
C826        C  0.90135221  0.50566823  0.99150309    -0.14300
C827        C  0.93020525  0.52232264  0.97162253     0.07800
C828        C  0.92295426  0.55197302  0.94791662    -0.14300
H829        H  0.88335825  0.59257460  0.93135145     0.11800
H830        H  0.84529203  0.51039242  0.00971620     0.11800
H831        H  0.90694586  0.48263079  0.00990515     0.11800
H832        H  0.94515744  0.56486668  0.93243463     0.11800
C833        C  0.57659524  0.55338184  0.05167372    -0.14300
C834        C  0.56965317  0.52282282  0.02901874     0.07800
C835        C  0.59878173  0.50544117  0.01012722    -0.14300
C836        C  0.63382975  0.52142169  0.00992143    -0.14300
C837        C  0.63971161  0.55494649  0.02856821     0.07800
C838        C  0.61170695  0.56925469  0.05172377    -0.14300
H839        H  0.55420254  0.56683352  0.06642453     0.11800
H840        H  0.59345231  0.48166401  0.99257839     0.11800
H841        H  0.65501609  0.50964984  0.99225517     0.11800
H842        H  0.61583593  0.59473010  0.06706168     0.11800
C843        C  0.05295273  0.44779542  0.42349072    -0.14300
C844        C  0.02236647  0.47042233  0.43026912     0.07800
C845        C  0.00487520  0.48890532  0.40095751    -0.14300
C846        C  0.02080007  0.48881112  0.36585999    -0.14300
C847        C  0.05436586  0.47026086  0.36011513     0.07800
C848        C  0.06876045  0.44743219  0.38833604    -0.14300
H849        H  0.06647481  0.43333627  0.44602243     0.11800
H850        H  0.98105519  0.50640249  0.40614891     0.11800
H851        H  0.00894244  0.50620326  0.34450080     0.11800
H852        H  0.09426385  0.43216105  0.38433448     0.11800
C853        C  0.63401750  0.47938196  0.48845529    -0.14300
C854        C  0.63967910  0.44553593  0.47032372     0.07800
C855        C  0.61144249  0.43089367  0.44767976    -0.14300
C856        C  0.57630754  0.44671697  0.44796420    -0.14300
C857        C  0.56959507  0.47754106  0.47032906     0.07800
C858        C  0.59894169  0.49531088  0.48847846    -0.14300
H859        H  0.65541162  0.49144997  0.50565229     0.11800
H860        H  0.61540515  0.40518327  0.43269005     0.11800
H861        H  0.55374823  0.43300771  0.43373131     0.11800
H862        H  0.59379469  0.51934414  0.50573738     0.11800
C863        C  0.86559542  0.47959408  0.51113246    -0.14300
C864        C  0.86001172  0.44591700  0.52956242     0.07800
C865        C  0.88833863  0.43147565  0.55219869    -0.14300
C866        C  0.92346181  0.44728339  0.55164634    -0.14300
C867        C  0.93009303  0.47788278  0.52900079     0.07800
C868        C  0.90068303  0.49548624  0.51079986    -0.14300
H869        H  0.84412307  0.49151573  0.49393626     0.11800
H870        H  0.88444152  0.40590801  0.56740525     0.11800
H871        H  0.94607342  0.43371849  0.56593128     0.11800
H872        H  0.90575850  0.51936000  0.49334286     0.11800
C873        C  0.76167197  0.77041458  0.61508668    -0.14300
C874        C  0.77974033  0.80431717  0.60973178     0.07800
C875        C  0.80202675  0.81895520  0.63825047    -0.14300
C876        C  0.80147445  0.80303231  0.67332203    -0.14300
C877        C  0.77918971  0.77212964  0.67970266     0.07800
C878        C  0.76136489  0.75439380  0.65012227    -0.14300
H879        H  0.74473807  0.75836225  0.59346490     0.11800
H880        H  0.81693564  0.84472427  0.63454075     0.11800
H881        H  0.81544603  0.81670749  0.69608013     0.11800
H882        H  0.74417381  0.73029439  0.65502485     0.11800
C883        C  0.74056825  0.74506221  0.84796760    -0.14300
C884        C  0.72111966  0.72783730  0.81910828     0.07800
C885        C  0.69799203  0.69778122  0.82642955    -0.14300
C886        C  0.69792747  0.68218104  0.86166911    -0.14300
C887        C  0.72152699  0.69625471  0.88941306     0.07800
C888        C  0.74076086  0.72934448  0.88314497    -0.14300
H889        H  0.75851306  0.76843640  0.84231074     0.11800
H890        H  0.68285523  0.68444220  0.80422573     0.11800
H891        H  0.68218397  0.65703222  0.86610073     0.11800
H892        H  0.75883040  0.74089497  0.90410887     0.11800
C893        C  0.69907694  0.19550190  0.17430990    -0.14300
C894        C  0.72065167  0.22695392  0.18053554     0.07800
C895        C  0.73792067  0.24497638  0.15081739    -0.14300
C896        C  0.73777254  0.22886051  0.11578777    -0.14300
C897        C  0.72038936  0.19458084  0.11052935     0.07800
C898        C  0.69867212  0.17948511  0.13924882    -0.14300
H899        H  0.68554908  0.18156683  0.19715997     0.11800
H900        H  0.75458847  0.26947489  0.15558387     0.11800
H901        H  0.75424969  0.24126732  0.09403295     0.11800
H902        H  0.68429483  0.15339185  0.13567233     0.11800
C903        C  0.80176759  0.30386617  0.32607892    -0.14300
C904        C  0.77940783  0.27310888  0.31920481     0.07800
C905        C  0.76090131  0.25549507  0.34842080    -0.14300
C906        C  0.76084461  0.27134702  0.38356281    -0.14300
C907        C  0.77926567  0.30496898  0.38946127     0.07800
C908        C  0.80197114  0.31961057  0.36127761    -0.14300
H909        H  0.81618333  0.31751854  0.30360509     0.11800
H910        H  0.74355163  0.23158490  0.34312806     0.11800
H911        H  0.74349279  0.25935079  0.40486322     0.11800
H912        H  0.81708625  0.34520530  0.36537627     0.11800
C913        C  0.70913109  0.44374694  0.38822043    -0.14300
C914        C  0.69331782  0.45958879  0.36250455    -0.15800
C915        C  0.69289691  0.54145786  0.13747842    -0.14300
C916        C  0.70858542  0.55734266  0.11171595    -0.15800
C917        C  0.50525373  0.49036480  0.09917294    -0.14300
C918        C  0.52252607  0.47142101  0.07000298     0.07800
C919        C  0.55270855  0.44832510  0.07693105    -0.14300
C920        C  0.56836766  0.44784534  0.11214472    -0.14300
C921        C  0.55424959  0.47105364  0.14022440     0.07800
C922        C  0.52102648  0.49014623  0.13431803    -0.14300
H923        H  0.48173357  0.50821612  0.09383935     0.11800
H924        H  0.56603455  0.43350773  0.05449300     0.11800
H925        H  0.59360254  0.43217888  0.11630443     0.11800
H926        H  0.50940804  0.50787051  0.15556417     0.11800
C927        C  0.52087554  0.51045525  0.36574099    -0.14300
C928        C  0.55418504  0.52942875  0.35998063     0.07800
C929        C  0.56821509  0.55258534  0.38813654    -0.14300
C930        C  0.55238164  0.55213944  0.42328476    -0.14300
C931        C  0.52215534  0.52907194  0.43010613     0.07800
C932        C  0.50495682  0.51023251  0.40083384    -0.14300
H933        H  0.50929282  0.49280223  0.34442527     0.11800
H934        H  0.59350230  0.56818054  0.38409932     0.11800
H935        H  0.56566433  0.56688559  0.44578805     0.11800
H936        H  0.48141150  0.49240307  0.40605821     0.11800
C937        C  0.72973171  0.38482140  0.25959233    -0.14300
C938        C  0.69656503  0.39064118  0.27880556     0.07800
C939        C  0.68256716  0.36248255  0.30193461    -0.14300
C940        C  0.69832554  0.32729885  0.30133470    -0.14300
C941        C  0.72844531  0.32045715  0.27814824     0.07800
C942        C  0.74558063  0.34968142  0.25921657    -0.14300
H943        H  0.74124165  0.40613258  0.24191002     0.11800
H944        H  0.65736117  0.36656077  0.31765839     0.11800
H945        H  0.68509898  0.30479754  0.31611542     0.11800
H946        H  0.76903891  0.34439885  0.24128060     0.11800
C947        C  0.73907759  0.77067737  0.38395443    -0.14300
C948        C  0.72071432  0.80436954  0.38972930     0.07800
C949        C  0.69786568  0.81886470  0.36159042    -0.14300
C950        C  0.69805369  0.80303301  0.32644437    -0.14300
C951        C  0.72055600  0.77236278  0.31960715     0.07800
C952        C  0.73902613  0.75474912  0.34885055    -0.14300
H953        H  0.75646976  0.75874876  0.40526722     0.11800
H954        H  0.68273740  0.84447126  0.36563295     0.11800
H955        H  0.68362220  0.81664191  0.30394949     0.11800
H956        H  0.75642708  0.73085660  0.34358553     0.11800
C957        C  0.80148268  0.69802604  0.17302377    -0.14300
C958        C  0.77862248  0.72841162  0.17995017     0.07800
C959        C  0.75977596  0.74575539  0.15078566    -0.14300
C960        C  0.75981842  0.72983380  0.11567301    -0.14300
C961        C  0.77867179  0.69642425  0.10979795     0.07800
C962        C  0.80177198  0.68221212  0.13786604    -0.14300
H963        H  0.81617423  0.68460772  0.19546462     0.11800
H964        H  0.74206555  0.76940254  0.15612379     0.11800
H965        H  0.74216876  0.74151411  0.09443415     0.11800
H966        H  0.81723597  0.65681934  0.13374453     0.11800
C967        C  0.69707777  0.67365182  0.19767160    -0.14300
C968        C  0.72737471  0.68082015  0.22051548     0.07800
C969        C  0.74482583  0.65180245  0.23951598    -0.14300
C970        C  0.72912244  0.61660408  0.23964712    -0.14300
C971        C  0.69583825  0.61046062  0.22076823     0.07800
C972        C  0.68151515  0.63837290  0.19750255    -0.14300
H973        H  0.68356865  0.69597548  0.18286451     0.11800
H974        H  0.76839287  0.65733860  0.25722808     0.11800
H975        H  0.74087553  0.59551099  0.25743776     0.11800
H976        H  0.65621079  0.63404538  0.18201322     0.11800
C977        C  0.19360854  0.04057671  0.63747085    -0.14300
C978        C  0.20956354  0.05636273  0.61179229    -0.15800
C979        C  0.54163880  0.36205514  0.19331859    -0.14300
C980        C  0.55752039  0.38778040  0.20912512    -0.15800
C981        C  0.63798130  0.19275283  0.04087715    -0.14300
C982        C  0.61234044  0.20856679  0.05686361    -0.15800
C983        C  0.49012583  0.36586396  0.02112826    -0.14300
C984        C  0.47143423  0.36000841  0.05458909     0.07800
C985        C  0.44855820  0.38820083  0.06902095    -0.14300
C986        C  0.44886018  0.42339605  0.05329974    -0.14300
C987        C  0.47148023  0.43025036  0.02276204     0.07800
C988        C  0.49016733  0.40101465  0.00529100    -0.14300
H989        H  0.50761431  0.34454644  0.00929156     0.11800
H990        H  0.43323465  0.38412386  0.09447517     0.11800
H991        H  0.43429506  0.44589185  0.06682251     0.11800
H992        H  0.50769433  0.40630113  0.98152925     0.11800
C993        C  0.63855543  0.30261438  0.18135785    -0.14300
C994        C  0.61059171  0.27946941  0.19572270     0.07800
C995        C  0.61660225  0.26075281  0.22913720    -0.14300
C996        C  0.65175750  0.26073261  0.24484426    -0.14300
C997        C  0.68084365  0.27949744  0.22731434     0.07800
C998        C  0.67378614  0.30234457  0.19696604    -0.14300
H999        H  0.63430276  0.31803093  0.15598202     0.11800
H1000       H  0.59543904  0.24311897  0.24096439     0.11800
H1001       H  0.65718035  0.24308164  0.26849425     0.11800
H1002       H  0.69614586  0.31704639  0.18344346     0.11800
C1003       C  0.59949641  0.00410739  0.98916128    -0.14300
C1004       C  0.56998790  0.02173326  0.97115415     0.07800
C1005       C  0.57648381  0.05236513  0.94850938    -0.14300
C1006       C  0.61159855  0.06818827  0.94779453    -0.14300
C1007       C  0.64004403  0.05371905  0.97026448     0.07800
C1008       C  0.63457198  0.02000514  0.98865922    -0.14300
H1009       H  0.59452454  0.98019596  0.00659812     0.11800
H1010       H  0.55379456  0.06593028  0.93434914     0.11800
H1011       H  0.61540647  0.09378547  0.93261515     0.11800
H1012       H  0.65613670  0.00805700  0.00572110     0.11800
C1013       C  0.51169212  0.09817833  0.00552903    -0.14300
C1014       C  0.52992671  0.06884274  0.02326988     0.07800
C1015       C  0.55207528  0.07559206  0.05418436    -0.14300
C1016       C  0.55221287  0.11077018  0.07000231    -0.14300
C1017       C  0.52965343  0.13904764  0.05526381     0.07800
C1018       C  0.51155863  0.13330203  0.02145978    -0.14300
H1019       H  0.49451932  0.09297742  0.98148443     0.11800
H1020       H  0.56628505  0.05302515  0.06793074     0.11800
H1021       H  0.56710835  0.11475799  0.09572863     0.11800
H1022       H  0.49436128  0.15469317  0.00936719     0.11800
C1023       C  0.69336775  0.04045061  0.86213654    -0.14300
C1024       C  0.70931771  0.05619744  0.88781618    -0.15800
C1025       C  0.70894677  0.94323682  0.61184720    -0.14300
C1026       C  0.69295372  0.95897941  0.63755444    -0.15800
C1027       C  0.72880679  0.88343937  0.73950429    -0.14300
C1028       C  0.69551625  0.88955697  0.72062126     0.07800
C1029       C  0.68125821  0.86163856  0.69730326    -0.14300
C1030       C  0.69692311  0.82638739  0.69736882    -0.14300
C1031       C  0.72724866  0.81923268  0.72018145     0.07800
C1032       C  0.74459854  0.84826182  0.73929046    -0.14300
H1033       H  0.74051114  0.90453846  0.75734167     0.11800
H1034       H  0.65594739  0.86594549  0.68182001     0.11800
H1035       H  0.68347931  0.80406366  0.68248585     0.11800
H1036       H  0.76817796  0.84275011  0.75698969     0.11800
C1037       C  0.50515457  0.98968998  0.90142815    -0.14300
C1038       C  0.52242979  0.97071725  0.93055225     0.07800
C1039       C  0.55273652  0.94777801  0.92353527    -0.14300
C1040       C  0.56848688  0.94751239  0.88834108    -0.14300
C1041       C  0.55429818  0.97071429  0.86031858     0.07800
C1042       C  0.52098761  0.98964651  0.86629431    -0.14300
H1043       H  0.48157629  0.00745607  0.90680707     0.11800
H1044       H  0.56610664  0.93295652  0.94592203     0.11800
H1045       H  0.59379749  0.93197021  0.88415196     0.11800
H1046       H  0.50930406  0.00736020  0.84510457     0.11800
C1047       C  0.55706826  0.61241803  0.29106805    -0.14300
C1048       C  0.54112583  0.63802518  0.30693421    -0.15800
C1049       C  0.61237591  0.79071006  0.44318351    -0.14300
C1050       C  0.63818890  0.80638221  0.45900285    -0.15800
C1051       C  0.48923187  0.63410296  0.47954708    -0.14300
C1052       C  0.47091440  0.63982509  0.44585571     0.07800
C1053       C  0.44825342  0.61155876  0.43126456    -0.14300
C1054       C  0.44854180  0.57638956  0.44702237    -0.14300
C1055       C  0.47091374  0.56963797  0.47776257     0.07800
C1056       C  0.48923062  0.59897422  0.49544208    -0.14300
H1057       H  0.50650687  0.65549713  0.49153435     0.11800
H1058       H  0.43317721  0.61553427  0.40564712     0.11800
H1059       H  0.43424997  0.55382450  0.43334402     0.11800
H1060       H  0.50654987  0.59377329  0.51937724     0.11800
C1061       C  0.63821402  0.69793785  0.31848734    -0.14300
C1062       C  0.60989309  0.72067859  0.30416836     0.07800
C1063       C  0.61544491  0.73915514  0.27052775    -0.14300
C1064       C  0.65050134  0.73943247  0.25455514    -0.14300
C1065       C  0.67992611  0.72114677  0.27204588     0.07800
C1066       C  0.67331455  0.69845070  0.30260970    -0.14300
H1067       H  0.63433767  0.68267607  0.34401394     0.11800
H1068       H  0.59397792  0.75642485  0.25869064     0.11800
H1069       H  0.65555060  0.75691984  0.23070606     0.11800
H1070       H  0.69592623  0.68407491  0.31608046     0.11800
C1071       C  0.57611173  0.94620014  0.55171696    -0.14300
C1072       C  0.56943449  0.97711569  0.52950269     0.07800
C1073       C  0.59880304  0.99485704  0.51138691    -0.14300
C1074       C  0.63387877  0.97891733  0.51139508    -0.14300
C1075       C  0.63955363  0.94507471  0.52947581     0.07800
C1076       C  0.61124775  0.93035591  0.55197726    -0.14300
H1077       H  0.55353309  0.93247773  0.56589047     0.11800
H1078       H  0.59368612  0.01892415  0.49420362     0.11800
H1079       H  0.65529898  0.99102339  0.49427534     0.11800
H1080       H  0.61518584  0.90462019  0.56689358     0.11800
C1081       C  0.36643781  0.02107900  0.48811774    -0.14300
C1082       C  0.36086824  0.05501819  0.47019209     0.07800
C1083       C  0.38925835  0.06981697  0.44784968    -0.14300
C1084       C  0.42437666  0.05394273  0.44816127    -0.14300
C1085       C  0.43094273  0.02292909  0.47027017     0.07800
C1086       C  0.40149633  0.00511926  0.48818688    -0.14300
H1087       H  0.34494405  0.00890519  0.50509657     0.11800
H1088       H  0.38539807  0.09562870  0.43304471     0.11800
H1089       H  0.44701669  0.06770796  0.43412866     0.11800
H1090       H  0.40653077  0.98096791  0.50527611     0.11800
C1091       C  0.55190885  0.05195418  0.57711119    -0.14300
C1092       C  0.52202253  0.02852052  0.57003542     0.07800
C1093       C  0.50503924  0.00918158  0.59907340    -0.14300
C1094       C  0.52082488  0.00941585  0.63420771    -0.14300
C1095       C  0.55379552  0.02889463  0.64023712     0.07800
C1096       C  0.56761104  0.05240828  0.61231275    -0.14300
H1097       H  0.56502869  0.06705132  0.55476732     0.11800
H1098       H  0.48177835  0.99103770  0.59362164     0.11800
H1099       H  0.50945615  0.99142123  0.65532858     0.11800
H1100       H  0.59265513  0.06833933  0.61657779     0.11800
C1101       C  0.55168299  0.92320234  0.44727301    -0.14300
C1102       C  0.52891183  0.93015627  0.47768172     0.07800
C1103       C  0.51011737  0.90101648  0.49511791    -0.14300
C1104       C  0.51015377  0.86585490  0.47930209    -0.14300
C1105       C  0.52893544  0.85992354  0.44590208     0.07800
C1106       C  0.55197837  0.88798856  0.43157089    -0.14300
H1107       H  0.56633990  0.94563939  0.43380440     0.11800
H1108       H  0.49248532  0.90640046  0.51879209     0.11800
H1109       H  0.49255081  0.84461847  0.49106003     0.11800
H1110       H  0.56738428  0.88382126  0.40617258     0.11800
C1111       C  0.44273662  0.88749502  0.29100034    -0.14300
C1112       C  0.45864867  0.86187684  0.30690294    -0.15800
C1113       C  0.44340486  0.11224527  0.20981572    -0.14300
C1114       C  0.45937737  0.13794023  0.19408132    -0.15800
C1115       C  0.30699448  0.04072766  0.36257993    -0.14300
C1116       C  0.29110044  0.05656358  0.38823447    -0.15800
C1117       C  0.43156827  0.05195346  0.11205382    -0.14300
C1118       C  0.44577752  0.02908531  0.14033003     0.07800
C1119       C  0.47927634  0.01037388  0.13470962    -0.14300
C1120       C  0.49528096  0.01013150  0.09965892    -0.14300
C1121       C  0.47796501  0.02867327  0.07028950     0.07800
C1122       C  0.44748058  0.05147483  0.07695027    -0.14300
H1123       H  0.40612152  0.06734195  0.11596915     0.11800
H1124       H  0.49099546  0.99295236  0.15612143     0.11800
H1125       H  0.51902818  0.99251028  0.09455324     0.11800
H1126       H  0.43410754  0.06598803  0.05436458     0.11800
C1127       C  0.49528011  0.98940622  0.40074268    -0.14300
C1128       C  0.47794616  0.97090536  0.43011530     0.07800
C1129       C  0.44752568  0.94804098  0.42345461    -0.14300
C1130       C  0.43165420  0.94749460  0.38833474    -0.14300
C1131       C  0.44585733  0.97034801  0.36005615     0.07800
C1132       C  0.47933344  0.98907445  0.36567386    -0.14300
H1133       H  0.51898309  0.00706698  0.40585300     0.11800
H1134       H  0.43415129  0.93354895  0.44604733     0.11800
H1135       H  0.40622636  0.93209543  0.38440830     0.11800
H1136       H  0.49104576  0.00648460  0.34425470     0.11800
C1137       C  0.61227501  0.29061227  0.55661619    -0.14300
C1138       C  0.63799136  0.30647599  0.54080168    -0.15800
C1139       C  0.55673556  0.11232204  0.70949893    -0.14300
C1140       C  0.54083678  0.13805706  0.69373187    -0.15800
C1141       C  0.38787041  0.20947195  0.55671482    -0.14300
C1142       C  0.36214370  0.19375723  0.54079218    -0.15800
C1143       C  0.44379992  0.38785163  0.70929849    -0.14300
C1144       C  0.45957883  0.36217041  0.69337174    -0.15800
C1145       C  0.55213156  0.38846526  0.56886301    -0.14300
C1146       C  0.52930066  0.36026203  0.55441668     0.07800
C1147       C  0.51076490  0.36604387  0.52085538    -0.14300
C1148       C  0.51084170  0.40113627  0.50489599    -0.14300
C1149       C  0.52945504  0.43040593  0.52236615     0.07800
C1150       C  0.55194062  0.42360888  0.55302073    -0.14300
H1151       H  0.56732846  0.38445040  0.59440245     0.11800
H1152       H  0.49330949  0.34471969  0.50900687     0.11800
H1153       H  0.49338695  0.40637830  0.48106828     0.11800
H1154       H  0.56641883  0.44613299  0.56656891     0.11800
C1155       C  0.48907949  0.13404777  0.52109836    -0.14300
C1156       C  0.47078496  0.13963773  0.55482636     0.07800
C1157       C  0.44828619  0.11125673  0.56940433    -0.14300
C1158       C  0.44866448  0.07612815  0.55349528    -0.14300
C1159       C  0.47101105  0.06954872  0.52267738     0.07800
C1160       C  0.48922581  0.09896807  0.50510589    -0.14300
H1161       H  0.50623539  0.15553243  0.50913340     0.11800
H1162       H  0.43325726  0.11513378  0.59507252     0.11800
H1163       H  0.43445050  0.05347642  0.56708113     0.11800
H1164       H  0.50652914  0.09389138  0.48112472     0.11800
C1165       C  0.26163187  0.24536085  0.65083926    -0.14300
C1166       C  0.27944714  0.22750763  0.68033801     0.07800
C1167       C  0.30159852  0.19651013  0.67382948    -0.14300
C1168       C  0.30204300  0.18065059  0.63870537    -0.14300
C1169       C  0.27978369  0.19544712  0.61024971     0.07800
C1170       C  0.26183914  0.22940932  0.61574665    -0.14300
H1171       H  0.24453878  0.26952913  0.65584267     0.11800
H1172       H  0.31555578  0.18273509  0.69652271     0.11800
H1173       H  0.31686314  0.15482761  0.63489922     0.11800
H1174       H  0.24493905  0.24158385  0.59417956     0.11800
C1175       C  0.19748068  0.17342899  0.69791920    -0.14300
C1176       C  0.22778330  0.18034673  0.72084056     0.07800
C1177       C  0.24499135  0.15118282  0.73982830    -0.14300
C1178       C  0.22911461  0.11606994  0.73976653    -0.14300
C1179       C  0.19586591  0.11015691  0.72074986     0.07800
C1180       C  0.18170636  0.13824457  0.69760354    -0.14300
H1181       H  0.18413909  0.19587725  0.68314889     0.11800
H1182       H  0.26853772  0.15652838  0.75762569     0.11800
H1183       H  0.24072839  0.09484368  0.75749105     0.11800
H1184       H  0.15640801  0.13410967  0.68205158     0.11800
C1185       C  0.30314776  0.32632437  0.80193552    -0.14300
C1186       C  0.27258656  0.31951441  0.77932924     0.07800
C1187       C  0.25515516  0.34877590  0.76069606    -0.14300
C1188       C  0.27113183  0.38385369  0.76062496    -0.14300
C1189       C  0.30467156  0.38961198  0.77917884     0.07800
C1190       C  0.31900440  0.36146359  0.80213909    -0.14300
H1191       H  0.31663915  0.30381003  0.81646851     0.11800
H1192       H  0.23137740  0.34352603  0.74318293     0.11800
H1193       H  0.25934428  0.40515920  0.74311203     0.11800
H1194       H  0.34449876  0.36549193  0.81739556     0.11800
C1195       C  0.34910909  0.26127409  0.74512443    -0.14300
C1196       C  0.31969204  0.27936487  0.72741766     0.07800
C1197       C  0.32633082  0.30183999  0.69669992    -0.14300
C1198       C  0.36148369  0.30233143  0.68093675    -0.14300
C1199       C  0.38983383  0.27979579  0.69553665     0.07800
C1200       C  0.38421373  0.26153440  0.72927533    -0.14300
H1201       H  0.34403188  0.24394859  0.76908572     0.11800
H1202       H  0.30372445  0.31605985  0.68305683     0.11800
H1203       H  0.36539781  0.31741344  0.65530888     0.11800
H1204       H  0.40568988  0.24441685  0.74131462     0.11800
C1205       C  0.29119535  0.44231256  0.88795489    -0.14300
C1206       C  0.30696613  0.45827715  0.86227533    -0.15800
C1207       C  0.19339698  0.45879860  0.13786046    -0.14300
C1208       C  0.20925280  0.44283373  0.11222325    -0.15800
C1209       C  0.36252362  0.30615007  0.04126388    -0.14300
C1210       C  0.38828789  0.29039806  0.05707474    -0.15800
C1211       C  0.11182456  0.43117905  0.05182821    -0.14300
C1212       C  0.14009385  0.44526696  0.02890167     0.07800
C1213       C  0.13443107  0.47862507  0.00992522    -0.14300
C1214       C  0.09940757  0.49466091  0.00962757    -0.14300
C1215       C  0.07008803  0.47754199  0.02839631     0.07800
C1216       C  0.07674327  0.44713784  0.05131217    -0.14300
H1217       H  0.11576044  0.40581592  0.06736938     0.11800
H1218       H  0.15581102  0.49021500  0.99240044     0.11800
H1219       H  0.09429316  0.51831068  0.99187519     0.11800
H1220       H  0.05418397  0.43389009  0.06595926     0.11800
C1221       C  0.36610424  0.47851292  0.99000445    -0.14300
C1222       C  0.36039397  0.44504280  0.97120437     0.07800
C1223       C  0.38860551  0.43079893  0.94826367    -0.14300
C1224       C  0.42369962  0.44671418  0.94863808    -0.14300
C1225       C  0.43041719  0.47723897  0.97141179     0.07800
C1226       C  0.40113174  0.49451821  0.99013981    -0.14300
H1227       H  0.34476852  0.49022587  0.00753012     0.11800
H1228       H  0.38462638  0.40535033  0.93284256     0.11800
H1229       H  0.44622351  0.43334446  0.93401389     0.11800
H1230       H  0.40629057  0.51826576  0.00778057     0.11800
C1231       C  0.24091687  0.27012601  0.88422555    -0.14300
C1232       C  0.22143865  0.30310923  0.89043021     0.07800
C1233       C  0.19795948  0.31711194  0.86257461    -0.14300
C1234       C  0.19841216  0.30159514  0.82729408    -0.14300
C1235       C  0.22178622  0.27168642  0.82006731     0.07800
C1236       C  0.24112878  0.25450142  0.84899704    -0.14300
H1237       H  0.25890070  0.25863695  0.90528883     0.11800
H1238       H  0.18204636  0.34217939  0.86696577     0.11800
H1239       H  0.18333648  0.31486488  0.80502137     0.11800
H1240       H  0.25923146  0.23121229  0.84340320     0.11800
C1241       C  0.19601361  0.32531846  0.19856662    -0.14300
C1242       C  0.22739607  0.31909512  0.22019271     0.07800
C1243       C  0.24540775  0.34884888  0.23747889    -0.14300
C1244       C  0.22928361  0.38388556  0.23738423    -0.14300
C1245       C  0.19501612  0.38910030  0.22003409     0.07800
C1246       C  0.17998726  0.36038288  0.19821937    -0.14300
H1247       H  0.18209178  0.30244194  0.18502100     0.11800
H1248       H  0.26986286  0.34408831  0.25417445     0.11800
H1249       H  0.24165692  0.40565641  0.25391236     0.11800
H1250       H  0.15391817  0.36394111  0.18384842     0.11800
C1251       C  0.19829296  0.18077995  0.36133805    -0.14300
C1252       C  0.22061937  0.19548926  0.38979409     0.07800
C1253       C  0.23858272  0.22943584  0.38436112    -0.14300
C1254       C  0.23869847  0.24547656  0.34932830    -0.14300
C1255       C  0.22080406  0.22771228  0.31980777     0.07800
C1256       C  0.19863548  0.19673766  0.32627400    -0.14300
H1257       H  0.18347630  0.15496457  0.36509208     0.11800
H1258       H  0.25555562  0.24153739  0.40592349     0.11800
H1259       H  0.25582822  0.26960699  0.34436229     0.11800
H1260       H  0.18462886  0.18301596  0.30356510     0.11800
C1261       C  0.34954870  0.23959406  0.24569121    -0.14300
C1262       C  0.32029240  0.22095029  0.22828492     0.07800
C1263       C  0.32711886  0.19812130  0.19783131    -0.14300
C1264       C  0.36225215  0.19774378  0.18201439    -0.14300
C1265       C  0.39039883  0.22074383  0.19627612     0.07800
C1266       C  0.38463226  0.23945771  0.22977418    -0.14300
H1267       H  0.34432335  0.25722813  0.26942357     0.11800
H1268       H  0.30463463  0.18351802  0.18438857     0.11800
H1269       H  0.36628782  0.18232901  0.15657999     0.11800
H1270       H  0.40594421  0.25696827  0.24154001     0.11800
C1271       C  0.27092428  0.11606940  0.26181702    -0.14300
C1272       C  0.30463771  0.11030490  0.28004541     0.07800
C1273       C  0.31932364  0.13858700  0.30265220    -0.14300
C1274       C  0.30366566  0.17382624  0.30228987    -0.14300
C1275       C  0.27294332  0.18060727  0.27990258     0.07800
C1276       C  0.25515688  0.15125592  0.26171687    -0.14300
H1277       H  0.25883875  0.09465466  0.24462337     0.11800
H1278       H  0.34494708  0.13456413  0.31769008     0.11800
H1279       H  0.31739678  0.19639357  0.31653018     0.11800
H1280       H  0.23121207  0.15646468  0.24442417     0.11800
C1281       C  0.30227821  0.30226567  0.17354280    -0.14300
C1282       C  0.27952894  0.27183255  0.18050715     0.07800
C1283       C  0.26083025  0.25429726  0.15134180    -0.14300
C1284       C  0.26084030  0.27009484  0.11619697    -0.14300
C1285       C  0.27949658  0.30358360  0.11029216     0.07800
C1286       C  0.30253058  0.31796164  0.13835190    -0.14300
H1287       H  0.31689283  0.31581162  0.19597021     0.11800
H1288       H  0.24323463  0.23059002  0.15669928     0.11800
H1289       H  0.24328062  0.25826197  0.09495822     0.11800
H1290       H  0.31787493  0.34340564  0.13420908     0.11800
C1291       C  0.88785086  0.29085321  0.44348024    -0.14300
C1292       C  0.86210405  0.30669697  0.45932794    -0.15800
C1293       C  0.11251474  0.20918122  0.44291323    -0.14300
C1294       C  0.13819395  0.19344037  0.45894064    -0.15800
C1295       C  0.05625223  0.38770962  0.29034074    -0.14300
C1296       C  0.04047494  0.36200792  0.30625393    -0.15800
C1297       C  0.94771739  0.42324030  0.44725873    -0.14300
C1298       C  0.97059380  0.43027820  0.47757631     0.07800
C1299       C  0.98963978  0.40118151  0.49484534    -0.14300
C1300       C  0.98978039  0.36605651  0.47893585    -0.14300
C1301       C  0.97087773  0.36006477  0.44561859     0.07800
C1302       C  0.94758019  0.38803599  0.43147152    -0.14300
H1303       H  0.93288902  0.44562710  0.43387810     0.11800
H1304       H  0.00738909  0.40661301  0.51841676     0.11800
H1305       H  0.00759225  0.34490891  0.49055992     0.11800
H1306       H  0.93207735  0.38381852  0.40614419     0.11800
C1307       C  0.86142299  0.19772738  0.31897506    -0.14300
C1308       C  0.88973118  0.22038297  0.30450905     0.07800
C1309       C  0.88412864  0.23876783  0.27083700    -0.14300
C1310       C  0.84907699  0.23898761  0.25490318    -0.14300
C1311       C  0.81968376  0.22075330  0.27246631     0.07800
C1312       C  0.82630144  0.19819463  0.30313221    -0.14300
H1313       H  0.86533597  0.18256704  0.34455820     0.11800
H1314       H  0.90556673  0.25600034  0.25891613     0.11800
H1315       H  0.84399908  0.25640805  0.23100742     0.11800
H1316       H  0.80369585  0.18390181  0.31668483     0.11800
C1317       C  0.13783801  0.30257422  0.31747268    -0.14300
C1318       C  0.11002579  0.27890192  0.30366211     0.07800
C1319       C  0.11622230  0.25929974  0.27075401    -0.14300
C1320       C  0.15138626  0.25911860  0.25504889    -0.14300
C1321       C  0.18031530  0.27863630  0.27203294     0.07800
C1322       C  0.17307456  0.30218026  0.30184562    -0.14300
H1323       H  0.13345196  0.31861292  0.34246105     0.11800
H1324       H  0.09520444  0.24118357  0.25938057     0.11800
H1325       H  0.15694720  0.24088787  0.23184727     0.11800
H1326       H  0.19531511  0.31743090  0.31497169     0.11800
C1327       C  0.80680492  0.45970807  0.63746945    -0.14300
C1328       C  0.79080510  0.44392996  0.61182849    -0.15800
C1329       C  0.79126266  0.55686680  0.88774753    -0.14300
C1330       C  0.80704778  0.54088013  0.86207947    -0.15800
C1331       C  0.93148924  0.55232603  0.61157151    -0.14300
C1332       C  0.94588349  0.52941626  0.63973276     0.07800
C1333       C  0.97937678  0.51077376  0.63388724    -0.14300
C1334       C  0.99517495  0.51062093  0.59873859    -0.14300
C1335       C  0.97764333  0.52915734  0.56948615     0.07800
C1336       C  0.94717223  0.55190638  0.57636124    -0.14300
H1337       H  0.90604920  0.56768133  0.61565911     0.11800
H1338       H  0.99123827  0.49332703  0.65519872     0.11800
H1339       H  0.01892197  0.49304766  0.59346730     0.11800
H1340       H  0.93363859  0.56643003  0.55387779     0.11800
C1341       C  0.97925661  0.48845613  0.86569385    -0.14300
C1342       C  0.94549756  0.47024734  0.86009795     0.07800
C1343       C  0.93075212  0.44797021  0.88857400    -0.14300
C1344       C  0.94643999  0.44862298  0.92376865    -0.14300
C1345       C  0.97727267  0.47094233  0.93032682     0.07800
C1346       C  0.99506182  0.48883390  0.90083758    -0.14300
H1347       H  0.99138544  0.50540436  0.84413824     0.11800
H1348       H  0.90508544  0.43296000  0.88470634     0.11800
H1349       H  0.93271167  0.43459721  0.94644348     0.11800
H1350       H  0.01910047  0.50605819  0.90586546     0.11800
C1351       C  0.77087797  0.61569837  0.76144710    -0.14300
C1352       C  0.80483062  0.61031264  0.77935741     0.07800
C1353       C  0.81961695  0.63891538  0.80148292    -0.14300
C1354       C  0.80371915  0.67403614  0.80097662    -0.14300
C1355       C  0.77267352  0.68040231  0.77891320     0.07800
C1356       C  0.75486434  0.65077599  0.76121716    -0.14300
H1357       H  0.75871460  0.59403216  0.74462701     0.11800
H1358       H  0.84544020  0.63521490  0.81625709     0.11800
H1359       H  0.81747560  0.69682655  0.81483071     0.11800
H1360       H  0.73067312  0.65566763  0.74417468     0.11800
C1361       C  0.69774166  0.17306002  0.80201735    -0.14300
C1362       C  0.72775895  0.18010554  0.77876493     0.07800
C1363       C  0.74480742  0.15102120  0.75946800    -0.14300
C1364       C  0.72898420  0.11587390  0.75957657    -0.14300
C1365       C  0.69592732  0.10986983  0.77890747     0.07800
C1366       C  0.68200747  0.13785571  0.80234975    -0.14300
H1367       H  0.68455575  0.19543984  0.81706436     0.11800
H1368       H  0.76816046  0.15644884  0.74145071     0.11800
H1369       H  0.74043095  0.09471092  0.74163559     0.11800
H1370       H  0.65688738  0.13363122  0.81816118     0.11800
C1371       C  0.76132587  0.24504347  0.84914115    -0.14300
C1372       C  0.77920698  0.22728317  0.81959347     0.07800
C1373       C  0.80129069  0.19622498  0.82602702    -0.14300
C1374       C  0.80167151  0.18028531  0.86110712    -0.14300
C1375       C  0.77941561  0.19504665  0.88961752     0.07800
C1376       C  0.76144108  0.22899512  0.88417617    -0.14300
H1377       H  0.74424456  0.26922646  0.84420441     0.11800
H1378       H  0.81527053  0.18248599  0.80330370     0.11800
H1379       H  0.81648861  0.15445686  0.86484388     0.11800
H1380       H  0.74450511  0.24112824  0.90575716     0.11800
C1381       C  0.67336931  0.19798635  0.69748515    -0.14300
C1382       C  0.68009314  0.22085656  0.72792403     0.07800
C1383       C  0.65075907  0.23933674  0.74538798    -0.14300
C1384       C  0.61569036  0.23909669  0.72947397    -0.14300
C1385       C  0.61003361  0.22045116  0.69592311     0.07800
C1386       C  0.63823728  0.19750003  0.68166921    -0.14300
H1387       H  0.69591508  0.18346058  0.68404295     0.11800
H1388       H  0.65590627  0.25695648  0.76914564     0.11800
H1389       H  0.59431347  0.25653407  0.74125776     0.11800
H1390       H  0.63425768  0.18210692  0.65621512     0.11800
C1391       C  0.73818774  0.25513681  0.65151438    -0.14300
C1392       C  0.72018727  0.27303229  0.68091838     0.07800
C1393       C  0.69827763  0.30416635  0.67425478    -0.14300
C1394       C  0.69816990  0.32000798  0.63912368    -0.14300
C1395       C  0.72051542  0.30507804  0.61076477     0.07800
C1396       C  0.73834846  0.27109122  0.61642385    -0.14300
H1397       H  0.75516263  0.23091411  0.65662221     0.11800
H1398       H  0.68422733  0.31803788  0.69685311     0.11800
H1399       H  0.68345954  0.34587420  0.63522999     0.11800
H1400       H  0.75535739  0.25883323  0.59497184     0.11800
C1401       C  0.80238102  0.32655154  0.69853838    -0.14300
C1402       C  0.77190731  0.32007377  0.72135235     0.07800
C1403       C  0.75456898  0.34958918  0.73970621    -0.14300
C1404       C  0.77053251  0.38466773  0.73921272    -0.14300
C1405       C  0.80402831  0.39013543  0.72048334     0.07800
C1406       C  0.81827397  0.36166240  0.69784219    -0.14300
H1407       H  0.81575525  0.30383625  0.68417515     0.11800
H1408       H  0.73082056  0.34460911  0.75732983     0.11800
H1409       H  0.75880051  0.40623552  0.75647443     0.11800
H1410       H  0.84373401  0.36545147  0.68247131     0.11800
C1411       C  0.54061005  0.86182044  0.80614346    -0.14300
C1412       C  0.55662426  0.88753490  0.79052632    -0.15800
C1413       C  0.61222517  0.70971102  0.94284941    -0.14300
C1414       C  0.63804849  0.69395121  0.95852281    -0.15800
C1415       C  0.45861666  0.63785718  0.80724660    -0.14300
C1416       C  0.44273017  0.61217350  0.79142564    -0.15800
C1417       C  0.55168084  0.61172453  0.93128105    -0.14300
C1418       C  0.52909112  0.64009599  0.94580880     0.07800
C1419       C  0.51060116  0.63444664  0.97941719    -0.14300
C1420       C  0.51037951  0.59931929  0.99529588    -0.14300
C1421       C  0.52870761  0.56992015  0.97772451     0.07800
C1422       C  0.55121494  0.57656243  0.94705776    -0.14300
H1423       H  0.56686161  0.61564015  0.90571628     0.11800
H1424       H  0.49336189  0.65591751  0.99134352     0.11800
H1425       H  0.49297290  0.59420096  0.01918294     0.11800
H1426       H  0.56553618  0.55394092  0.93348432     0.11800
C1427       C  0.63806423  0.80185073  0.81785059    -0.14300
C1428       C  0.60979932  0.77893208  0.80369828     0.07800
C1429       C  0.61543422  0.76012373  0.77022293    -0.14300
C1430       C  0.65046888  0.75988783  0.75418204    -0.14300
C1431       C  0.67982027  0.77851612  0.77144581     0.07800
C1432       C  0.67314443  0.80137061  0.80191350    -0.14300
H1433       H  0.63414938  0.81731517  0.84327316     0.11800
H1434       H  0.59403984  0.74265392  0.75854591     0.11800
H1435       H  0.65557495  0.74222099  0.73044791     0.11800
H1436       H  0.69570502  0.81594758  0.81525622     0.11800
C1437       C  0.44837189  0.88918059  0.93007050    -0.14300
C1438       C  0.47032782  0.86056867  0.94506376     0.07800
C1439       C  0.48770782  0.86584095  0.97931928    -0.14300
C1440       C  0.48766817  0.90086535  0.99546905    -0.14300
C1441       C  0.47025128  0.93053112  0.97746382     0.07800
C1442       C  0.44860799  0.92423647  0.94610619    -0.14300
H1443       H  0.43397369  0.88556292  0.90400980     0.11800
H1444       H  0.50434780  0.84414665  0.99165067     0.11800
H1445       H  0.50437845  0.90570873  0.01991113     0.11800
H1446       H  0.43497168  0.94705901  0.93220094     0.11800
C1447       C  0.24499479  0.84912098  0.75977128    -0.14300
C1448       C  0.22771810  0.81988094  0.77855175     0.07800
C1449       C  0.19743297  0.82672006  0.80152916    -0.14300
C1450       C  0.18171687  0.86193313  0.80208945    -0.14300
C1451       C  0.19592075  0.89012472  0.77912232     0.07800
C1452       C  0.22919685  0.88428177  0.76011097    -0.14300
H1453       H  0.26857191  0.84384729  0.74198972     0.11800
H1454       H  0.18408683  0.80421208  0.81619068     0.11800
H1455       H  0.15641356  0.86602296  0.81765338     0.11800
H1456       H  0.24086435  0.90561021  0.74255373     0.11800
C1457       C  0.25514251  0.65066448  0.74079742    -0.14300
C1458       C  0.27226502  0.67978991  0.72170367     0.07800
C1459       C  0.30233731  0.67282061  0.69849110    -0.14300
C1460       C  0.31803413  0.63760033  0.69798483    -0.14300
C1461       C  0.30402504  0.60954075  0.72123344     0.07800
C1462       C  0.27092841  0.61549968  0.74051741    -0.14300
H1463       H  0.23173702  0.65605244  0.75877279     0.11800
H1464       H  0.31556444  0.69524565  0.68359597     0.11800
H1465       H  0.34319661  0.63341060  0.68221989     0.11800
H1466       H  0.25942887  0.59428040  0.75831544     0.11800
C1467       C  0.32591364  0.69818851  0.80412059    -0.14300
C1468       C  0.31931471  0.72038825  0.77319458     0.07800
C1469       C  0.34875169  0.73820651  0.75527573    -0.14300
C1470       C  0.38385727  0.73800763  0.77109258    -0.14300
C1471       C  0.38945216  0.72007660  0.80500441     0.07800
C1472       C  0.36108267  0.69773363  0.81984102    -0.14300
H1473       H  0.30328477  0.68417026  0.81791845     0.11800
H1474       H  0.34369423  0.75530434  0.73114515     0.11800
H1475       H  0.40535608  0.75494974  0.75886969     0.11800
H1476       H  0.36499101  0.68288205  0.84560580     0.11800
C1477       C  0.20934398  0.55523823  0.38801854    -0.14300
C1478       C  0.19346746  0.53956401  0.36224213    -0.15800
C1479       C  0.29153312  0.55609000  0.61200293    -0.14300
C1480       C  0.30741141  0.54036452  0.63771615    -0.15800
C1481       C  0.38774327  0.70860526  0.44320889    -0.14300
C1482       C  0.36205758  0.69260433  0.45890196    -0.15800
C1483       C  0.36642111  0.52006276  0.51083530    -0.14300
C1484       C  0.36039507  0.55358409  0.52944857     0.07800
C1485       C  0.38836481  0.56807119  0.55251620    -0.14300
C1486       C  0.42362638  0.55253418  0.55219932    -0.14300
C1487       C  0.43071053  0.52211789  0.52940377     0.07800
C1488       C  0.40161876  0.50440529  0.51078888    -0.14300
H1489       H  0.34523857  0.50812154  0.49328932     0.11800
H1490       H  0.38409867  0.59351231  0.56787818     0.11800
H1491       H  0.44598765  0.56617631  0.56680415     0.11800
H1492       H  0.40705960  0.48067232  0.49320681     0.11800
C1493       C  0.13429199  0.51962741  0.49091344    -0.14300
C1494       C  0.14054780  0.55243185  0.47117679     0.07800
C1495       C  0.11285064  0.56609429  0.44731968    -0.28700
C1496       C  0.07759036  0.55057175  0.44775089    -0.14300
C1497       C  0.07023612  0.52099171  0.47149016     0.07800
C1498       C  0.09909043  0.50400227  0.49111594    -0.14300
H1499       H  0.15525426  0.50835081  0.50914503     0.11800
H1500       H  0.11731830  0.59096635  0.43114826     0.11800
H1501       H  0.05540733  0.56365405  0.43238764     0.11800
H1502       H  0.09343771  0.48093013  0.50945246     0.11800
C1503       C  0.19848251  0.68061289  0.63844176    -0.14300
C1504       C  0.22140648  0.69486362  0.61024656     0.07800
C1505       C  0.24024896  0.72827551  0.61605250    -0.14300
C1506       C  0.24030390  0.74428902  0.65112318    -0.14300
C1507       C  0.22148022  0.72705505  0.68035732     0.07800
C1508       C  0.19878752  0.69652204  0.67356717    -0.14300
H1509       H  0.18307371  0.65518409  0.63440963     0.11800
H1510       H  0.25781008  0.73995665  0.59474747     0.11800
H1511       H  0.25792923  0.76800934  0.65635727     0.11800
H1512       H  0.18414540  0.68315465  0.69606568     0.11800
C1513       C  0.34880842  0.75999058  0.25510342    -0.14300
C1514       C  0.31963579  0.77881554  0.27248489     0.07800
C1515       C  0.32658644  0.80183388  0.30275807    -0.14300
C1516       C  0.36178269  0.80225391  0.31844304    -0.14300
C1517       C  0.38983679  0.77907206  0.30425672     0.07800
C1518       C  0.38393674  0.76014490  0.27090585    -0.14300
H1519       H  0.34348120  0.74221464  0.23150199     0.11800
H1520       H  0.30416708  0.81658608  0.31616575     0.11800
H1521       H  0.36593939  0.81783468  0.34375451     0.11800
H1522       H  0.40517115  0.74247916  0.25920369     0.11800
C1523       C  0.25494008  0.84885457  0.24119765    -0.14300
C1524       C  0.27188605  0.81980532  0.22175916     0.07800
C1525       C  0.30170953  0.82689990  0.19827636    -0.14300
C1526       C  0.31736288  0.86213914  0.19780020    -0.14300
C1527       C  0.30357889  0.89009878  0.22134856     0.07800
C1528       C  0.27069558  0.88403088  0.24095944    -0.14300
H1529       H  0.23173349  0.84338465  0.25939205     0.11800
H1530       H  0.31480792  0.80454477  0.18311758     0.11800
H1531       H  0.34234624  0.86641676  0.18178809     0.11800
H1532       H  0.25936426  0.90516647  0.25900694     0.11800
C1533       C  0.24518007  0.65052640  0.26059829    -0.14300
C1534       C  0.22771758  0.67988532  0.27908551     0.07800
C1535       C  0.19724967  0.67317282  0.30184212    -0.14300
C1536       C  0.18149821  0.63798844  0.30234356    -0.14300
C1537       C  0.19586721  0.60968516  0.27955526     0.07800
C1538       C  0.22934535  0.61538728  0.26087641    -0.14300
H1539       H  0.26892093  0.65569068  0.24301658     0.11800
H1540       H  0.18377523  0.69575945  0.31631332     0.11800
H1541       H  0.15604922  0.63401353  0.31768569     0.11800
H1542       H  0.24116452  0.59396163  0.24349903     0.11800
C1543       C  0.30160847  0.67991657  0.36121544    -0.14300
C1544       C  0.27897357  0.69442949  0.38954723     0.07800
C1545       C  0.26079503  0.72825920  0.38402463    -0.14300
C1546       C  0.26095073  0.74444769  0.34905272    -0.14300
C1547       C  0.27929282  0.72694294  0.31963575     0.07800
C1548       C  0.30151197  0.69600423  0.32619619    -0.14300
H1549       H  0.31656695  0.65418084  0.36502636     0.11800
H1550       H  0.24354147  0.74019156  0.40546554     0.11800
H1551       H  0.24372162  0.76850501  0.34401412     0.11800
H1552       H  0.31581010  0.68243410  0.30357123     0.11800
C1553       C  0.86209156  0.69350569  0.04132569    -0.14300
C1554       C  0.88778867  0.70925283  0.05728948    -0.15800
C1555       C  0.04117725  0.63780811  0.19359228    -0.14300
C1556       C  0.05706000  0.61212102  0.20943933    -0.15800
C1557       C  0.94835996  0.61126184  0.06950961    -0.14300
C1558       C  0.97064571  0.63976057  0.05483330     0.07800
C1559       C  0.98869333  0.63431342  0.02094588    -0.14300
C1560       C  0.98890314  0.59924107  0.00491321    -0.14300
C1561       C  0.97101980  0.56970162  0.02262759     0.07800
C1562       C  0.94881740  0.57615106  0.05357358    -0.14300
H1563       H  0.93348674  0.61502716  0.09528456     0.11800
H1564       H  0.00564795  0.65590319  0.00888245     0.11800
H1565       H  0.00604729  0.59427383  0.98079538     0.11800
H1566       H  0.93480888  0.55342101  0.06723975     0.11800
C1567       C  0.86228114  0.80262095  0.18263840    -0.14300
C1568       C  0.89011471  0.77900821  0.19649679     0.07800
C1569       C  0.88391521  0.75946602  0.22941207    -0.14300
C1570       C  0.84873071  0.75929564  0.24508418    -0.14300
C1571       C  0.81979130  0.77875456  0.22804519     0.07800
C1572       C  0.82703041  0.80222336  0.19821723    -0.14300
H1573       H  0.86666817  0.81861610  0.15764912     0.11800
H1574       H  0.90495597  0.74139932  0.24082379     0.11800
H1575       H  0.84317480  0.74113298  0.26831013     0.11800
H1576       H  0.80478372  0.81743403  0.18505936     0.11800
C1577       C  0.11600050  0.73797575  0.22954790    -0.14300
C1578       C  0.11041578  0.71998504  0.19563537     0.07800
C1579       C  0.13876848  0.69753100  0.18087369    -0.14300
C1580       C  0.17392822  0.69796441  0.19661733    -0.14300
C1581       C  0.18055145  0.72025761  0.22749868     0.07800
C1582       C  0.15110831  0.73815494  0.24539299    -0.14300
H1583       H  0.09450609  0.75498379  0.24173427     0.11800
H1584       H  0.13486955  0.68261454  0.15512569     0.11800
H1585       H  0.19654921  0.68387912  0.18283787     0.11800
H1586       H  0.15616901  0.75531223  0.26950319     0.11800
C1587       C  0.11214632  0.79085087  0.05680599    -0.14300
C1588       C  0.13783204  0.80677924  0.04100565    -0.15800
C1589       C  0.36211780  0.80723652  0.95927600    -0.14300
C1590       C  0.38784004  0.79135212  0.94347620    -0.15800
C1591       C  0.29070077  0.94367628  0.11238394    -0.14300
C1592       C  0.30654498  0.95951295  0.13808051    -0.15800
C1593       C  0.20880605  0.94389393  0.88826840    -0.14300
C1594       C  0.19294216  0.95963542  0.86250739    -0.15800
C1595       C  0.30145979  0.81978566  0.86136386    -0.14300
C1596       C  0.27904906  0.80509970  0.88975437     0.07800
C1597       C  0.26088619  0.77128463  0.88414714    -0.14300
C1598       C  0.26081950  0.75527840  0.84907659    -0.14300
C1599       C  0.27897957  0.77291429  0.81966236     0.07800
C1600       C  0.30115194  0.80387162  0.82624871    -0.14300
H1601       H  0.31639189  0.84552280  0.86523518     0.11800
H1602       H  0.24379783  0.75923112  0.90562800     0.11800
H1603       H  0.24364123  0.73119612  0.84401149     0.11800
H1604       H  0.31532162  0.81752684  0.80362080     0.11800
C1605       C  0.23956244  0.77098211  0.11622831    -0.14300
C1606       C  0.22094261  0.80453393  0.11048615     0.07800
C1607       C  0.19807633  0.81889820  0.13870981    -0.14300
C1608       C  0.19834709  0.80301852  0.17383270    -0.14300
C1609       C  0.22092893  0.77238766  0.18059055     0.07800
C1610       C  0.23957109  0.75499002  0.15129404    -0.14300
H1611       H  0.25702658  0.75917526  0.09488897     0.11800
H1612       H  0.18278993  0.84441335  0.13472447     0.11800
H1613       H  0.18381663  0.81650508  0.19635883     0.11800
H1614       H  0.25708037  0.73116856  0.15648247     0.11800
C1615       C  0.36606043  0.97945424  0.01033378    -0.14300
C1616       C  0.35997820  0.94627630  0.02948781     0.07800
C1617       C  0.38791560  0.93216737  0.05281740    -0.14300
C1618       C  0.42314655  0.94778471  0.05244670    -0.14300
C1619       C  0.43027356  0.97787393  0.02926754     0.07800
C1620       C  0.40123355  0.99515428  0.01018066    -0.14300
H1621       H  0.34493321  0.99107304  0.99251453     0.11800
H1622       H  0.38362843  0.90697139  0.06853003     0.11800
H1623       H  0.44546782  0.93443610  0.06737500     0.11800
H1624       H  0.40670095  0.01858747  0.99225129     0.11800
C1625       C  0.04138074  0.86196068  0.69308241    -0.14300
C1626       C  0.05719853  0.88768399  0.70895146    -0.15800
C1627       C  0.94355289  0.61212187  0.70941773    -0.14300
C1628       C  0.95933051  0.63783921  0.69355732    -0.15800
C1629       C  0.11221204  0.70813912  0.55667806    -0.14300
C1630       C  0.13788944  0.69213244  0.54091379    -0.15800
C1631       C  0.88805531  0.79086703  0.55669174    -0.14300
C1632       C  0.86239038  0.80671630  0.54076234    -0.15800
C1633       C  0.11635024  0.76016825  0.72887904    -0.14300
C1634       C  0.11043539  0.77899239  0.69550557     0.07800
C1635       C  0.13849427  0.80206819  0.68121849    -0.14300
C1636       C  0.17368893  0.80169945  0.69690306    -0.14300
C1637       C  0.18062064  0.77884499  0.72727226     0.07800
C1638       C  0.15146778  0.76006226  0.74467296    -0.14300
H1639       H  0.09512291  0.74256099  0.74063169     0.11800
H1640       H  0.13432834  0.81754160  0.65586347     0.11800
H1641       H  0.19610844  0.81638904  0.68346631     0.11800
H1642       H  0.15679827  0.74238660  0.76832613     0.11800
C1643       C  0.05204368  0.61108160  0.56900159    -0.14300
C1644       C  0.02924849  0.63928484  0.55449603     0.07800
C1645       C  0.01096719  0.63353876  0.52078582    -0.14300
C1646       C  0.01117865  0.59845752  0.50474669    -0.14300
C1647       C  0.02963404  0.56915655  0.52231256     0.07800
C1648       C  0.05196534  0.57594058  0.55309141    -0.14300
H1649       H  0.06708483  0.61507876  0.59464024     0.11800
H1650       H  0.99357703  0.65487339  0.50886923     0.11800
H1651       H  0.99385824  0.59323166  0.48081273     0.11800
H1652       H  0.06633943  0.55340126  0.56671014     0.11800
C1653       C  0.88395438  0.74005923  0.72900031    -0.14300
C1654       C  0.89014859  0.72079437  0.69589722     0.07800
C1655       C  0.86230389  0.69732303  0.68180638    -0.14300
C1656       C  0.82701672  0.69773519  0.69729262    -0.14300
C1657       C  0.81976866  0.72103873  0.72728329     0.07800
C1658       C  0.84873201  0.74023016  0.74459101    -0.14300
H1659       H  0.90502021  0.75796349  0.74061808     0.11800
H1660       H  0.86669760  0.68148966  0.65668845     0.11800
H1661       H  0.80476349  0.68269332  0.68394881     0.11800
H1662       H  0.84317378  0.75822418  0.76797546     0.11800
C1663       C  0.92383031  0.94672657  0.44800233    -0.14300
C1664       C  0.93082077  0.97720336  0.47074453     0.07800
C1665       C  0.90168753  0.99474208  0.48948656    -0.14300
C1666       C  0.86651786  0.97902877  0.48939896    -0.14300
C1667       C  0.86051888  0.94559811  0.47062745     0.07800
C1668       C  0.88860043  0.93112516  0.44765470    -0.14300
H1669       H  0.94622677  0.93316153  0.43336034     0.11800
H1670       H  0.90705870  0.01846954  0.50708985     0.11800
H1671       H  0.84529157  0.99091669  0.50693873     0.11800
H1672       H  0.88440790  0.90570853  0.43223733     0.11800
C1673       C  0.07651199  0.05336400  0.55120565    -0.14300
C1674       C  0.06998453  0.02258353  0.52873384     0.07800
C1675       C  0.09944964  0.00489032  0.51068843    -0.14300
C1676       C  0.13452902  0.02077554  0.51105796    -0.14300
C1677       C  0.14006781  0.05452920  0.52939175     0.07800
C1678       C  0.11164198  0.06914980  0.55182492    -0.14300
H1679       H  0.05385092  0.06700615  0.56536010     0.11800
H1680       H  0.09443925  0.98088976  0.49335108     0.11800
H1681       H  0.15606030  0.00874110  0.49399644     0.11800
H1682       H  0.11548978  0.09480332  0.56693774     0.11800
C1683       C  0.00560207  0.98941973  0.59835194    -0.14300
C1684       C  0.02310437  0.97075952  0.56913474     0.07800
C1685       C  0.05357000  0.94802165  0.57603284    -0.14300
C1686       C  0.06922040  0.94764570  0.61125834    -0.14300
C1687       C  0.05478782  0.97057273  0.63941711     0.07800
C1688       C  0.02135195  0.98929225  0.63351520    -0.14300
H1689       H  0.98188458  0.00701525  0.59305048     0.11800
H1690       H  0.06710230  0.93343910  0.55356456     0.11800
H1691       H  0.09463787  0.93226932  0.61538219     0.11800
H1692       H  0.00948457  0.00678771  0.65481115     0.11800
C1693       C  0.01008049  0.09879300  0.49454099    -0.14300
C1694       C  0.02909693  0.06965093  0.47728735     0.07800
C1695       C  0.05206865  0.07659758  0.44703007    -0.14300
C1696       C  0.05240030  0.11179636  0.43130793    -0.14300
C1697       C  0.02923604  0.13986888  0.44549387     0.07800
C1698       C  0.01018693  0.13393521  0.47873363    -0.14300
H1699       H  0.99226797  0.09342524  0.51807225     0.11800
H1700       H  0.06688280  0.05416150  0.43368244     0.11800
H1701       H  0.06797672  0.11596135  0.40602168     0.11800
H1702       H  0.99245279  0.15516342  0.49036534     0.11800
C1703       C  0.94916730  0.92333759  0.55255961    -0.14300
C1704       C  0.97177156  0.92994915  0.52195654     0.07800
C1705       C  0.99035140  0.90057270  0.50461971    -0.14300
C1706       C  0.99021413  0.86551681  0.52064592    -0.14300
C1707       C  0.97154730  0.85990562  0.55416392     0.07800
C1708       C  0.94879837  0.88824549  0.56849380    -0.14300
H1709       H  0.93470713  0.94595794  0.56598723     0.11800
H1710       H  0.00788642  0.90568028  0.48082379     0.11800
H1711       H  0.00761178  0.84407802  0.50889320     0.11800
H1712       H  0.93351591  0.88436185  0.59400246     0.11800
C1713       C  0.95890483  0.13782065  0.30655895    -0.14300
C1714       C  0.94299217  0.11219058  0.29061791    -0.15800
C1715       C  0.79063326  0.05586905  0.11189627    -0.14300
C1716       C  0.80648317  0.04007097  0.13761836    -0.15800
C1717       C  0.79088040  0.94358138  0.38797656    -0.14300
C1718       C  0.80680102  0.95932783  0.36226984    -0.15800
C1719       C  0.94361104  0.88770513  0.20963026    -0.14300
C1720       C  0.95953380  0.86195019  0.19394276    -0.15800
C1721       C  0.81959614  0.86109199  0.30207957    -0.14300
C1722       C  0.80482035  0.88952833  0.27975000     0.07800
C1723       C  0.77086883  0.88403130  0.26188876    -0.14300
C1724       C  0.75485974  0.84896877  0.26187608    -0.14300
C1725       C  0.77266021  0.81945337  0.27974803     0.07800
C1726       C  0.80369704  0.82596808  0.30179192    -0.14300
H1727       H  0.84541772  0.86489854  0.31683213     0.11800
H1728       H  0.75871395  0.90556710  0.24491772     0.11800
H1729       H  0.73069326  0.84396776  0.24483090     0.11800
H1730       H  0.81746375  0.80326883  0.31577098     0.11800
C1731       C  0.77097767  0.11580431  0.24048210    -0.14300
C1732       C  0.80387158  0.10972964  0.22088670     0.07800
C1733       C  0.81771202  0.13769543  0.19743335    -0.14300
C1734       C  0.80205975  0.17294093  0.19797122    -0.14300
C1735       C  0.77221090  0.18002708  0.22144165     0.07800
C1736       C  0.75525542  0.15099151  0.24081862    -0.14300
H1737       H  0.75961632  0.09466097  0.25845926     0.11800
H1738       H  0.84272079  0.13340897  0.18145042     0.11800
H1739       H  0.81516553  0.19529903  0.18287082     0.11800
H1740       H  0.73203659  0.15646836  0.25900834     0.11800
C1741       C  0.93093609  0.05202936  0.38852457    -0.14300
C1742       C  0.94552195  0.02961559  0.36004189     0.07800
C1743       C  0.97930651  0.01139178  0.36550334    -0.14300
C1744       C  0.99527830  0.01110831  0.40056673    -0.14300
C1745       C  0.97763207  0.02911383  0.43010214     0.07800
C1746       C  0.94680982  0.05149571  0.42363736    -0.14300
H1747       H  0.90525675  0.06705346  0.38474241     0.11800
H1748       H  0.99131920  0.99434388  0.34392806     0.11800
H1749       H  0.01930289  0.99383317  0.40552148     0.11800
H1750       H  0.93319167  0.06561300  0.44634877     0.11800
C1751       C  0.11201456  0.29043010  0.94353648    -0.14300
C1752       C  0.13783939  0.30611041  0.95937606    -0.15800
C1753       C  0.04089572  0.13807395  0.80613188    -0.14300
C1754       C  0.05679697  0.11240261  0.79025583    -0.15800
C1755       C  0.95887392  0.36172115  0.80636017    -0.14300
C1756       C  0.94299971  0.38738578  0.79044228    -0.15800
C1757       C  0.88772905  0.20886025  0.94331469    -0.14300
C1758       C  0.86203949  0.19305233  0.95924237    -0.15800
C1759       C  0.17406280  0.19849348  0.80359956    -0.14300
C1760       C  0.18067116  0.22065976  0.77265143     0.07800
C1761       C  0.15122507  0.23863538  0.75486106    -0.14300
C1762       C  0.11613421  0.23854300  0.77078540    -0.14300
C1763       C  0.11053400  0.22052733  0.80466322     0.07800
C1764       C  0.13893293  0.19814856  0.81941951    -0.14300
H1765       H  0.19668676  0.18440358  0.81734920     0.11800
H1766       H  0.15627126  0.25575290  0.73074525     0.11800
H1767       H  0.09463215  0.25554309  0.75862882     0.11800
H1768       H  0.13506493  0.18326186  0.84516747     0.11800
C1769       C  0.05200646  0.38808833  0.93132196    -0.14300
C1770       C  0.02879962  0.36009573  0.94552915     0.07800
C1771       C  0.00980669  0.36612994  0.97879438    -0.14300
C1772       C  0.00982125  0.40129361  0.99462051    -0.14300
C1773       C  0.02887433  0.43036232  0.97734090     0.07800
C1774       C  0.05177539  0.42330961  0.94704539    -0.14300
H1775       H  0.06755101  0.38384663  0.90602163     0.11800
H1776       H  0.99204645  0.34496582  0.99044578     0.11800
H1777       H  0.99206192  0.40674550  0.01818417     0.11800
H1778       H  0.06661381  0.44568410  0.93367410     0.11800
C1779       C  0.88357339  0.26067992  0.77089446    -0.14300
C1780       C  0.88950115  0.27934439  0.80438276     0.07800
C1781       C  0.86145099  0.30241570  0.81877035    -0.14300
C1782       C  0.82625248  0.30215993  0.80307489    -0.14300
C1783       C  0.81927953  0.27938415  0.77261894     0.07800
C1784       C  0.84844119  0.26066735  0.75510322    -0.14300
H1785       H  0.90479768  0.24310369  0.75904225     0.11800
H1786       H  0.86561865  0.31778907  0.84420629     0.11800
H1787       H  0.80384402  0.31681454  0.81660780     0.11800
H1788       H  0.84309850  0.24306278  0.73137796     0.11800
C1789       C  0.92334038  0.05237444  0.05147678    -0.14300
C1790       C  0.92990825  0.02175484  0.02879477     0.07800
C1791       C  0.90047182  0.00413024  0.01066655    -0.14300
C1792       C  0.86540079  0.02004708  0.01106384    -0.14300
C1793       C  0.85987774  0.05376385  0.02948527     0.07800
C1794       C  0.88822619  0.06820763  0.05209914    -0.14300
H1795       H  0.94597962  0.06592247  0.06573671     0.11800
H1796       H  0.90551109  0.98021842  0.99320927     0.11800
H1797       H  0.84389935  0.00812079  0.99390089     0.11800
H1798       H  0.88435957  0.09380271  0.06731060     0.11800
C1799       C  0.06815446  0.05216384  0.88806913    -0.14300
C1800       C  0.05398542  0.02933282  0.85971588     0.07800
C1801       C  0.02060626  0.01044329  0.86533522    -0.14300
C1802       C  0.00470559  0.00999654  0.90042680    -0.14300
C1803       C  0.02198792  0.02853497  0.92983588     0.07800
C1804       C  0.05234175  0.05148676  0.92321570    -0.14300
H1805       H  0.09351276  0.06767525  0.88415844     0.11800
H1806       H  0.00892774  0.99303208  0.84387401     0.11800
H1807       H  0.98105165  0.99226799  0.90550520     0.11800
H1808       H  0.06567715  0.06600529  0.94583573     0.11800
C1809       C  0.05118413  0.92388540  0.05365524    -0.14300
C1810       C  0.02933323  0.93017969  0.02243610     0.07800
C1811       C  0.01165600  0.90051681  0.00465712    -0.14300
C1812       C  0.01166683  0.86552606  0.02085915    -0.14300
C1813       C  0.02935978  0.86025171  0.05495662     0.07800
C1814       C  0.05146434  0.88886061  0.06974537    -0.14300
H1815       H  0.06499599  0.94669836  0.06741776     0.11800
H1816       H  0.99475156  0.90534622  0.98035106     0.11800
H1817       H  0.99486941  0.84385507  0.00869195     0.11800
H1818       H  0.06607304  0.88525803  0.09568648     0.11800
C1819       C  0.09841349  0.99493232  0.99039378    -0.14300
C1820       C  0.06956230  0.97771195  0.97096463     0.07800
C1821       C  0.07690129  0.94775612  0.94764199    -0.14300
C1822       C  0.11215569  0.93218758  0.94743330    -0.14300
C1823       C  0.13986441  0.94618950  0.97109906     0.07800
C1824       C  0.13359810  0.97925833  0.99042950    -0.14300
H1825       H  0.09276173  0.01826361  0.00844014     0.11800
H1826       H  0.05471395  0.93446280  0.93246157     0.11800
H1827       H  0.11661585  0.90708186  0.93158193     0.11800
H1828       H  0.15455786  0.99078216  0.00851460     0.11800
C1829       C  0.99459518  0.98956455  0.09847181    -0.14300
C1830       C  0.97731219  0.97059354  0.06933556     0.07800
C1831       C  0.94703961  0.94764036  0.07631923    -0.14300
C1832       C  0.93133398  0.94733580  0.11152572    -0.14300
C1833       C  0.94553669  0.97051652  0.13958347     0.07800
C1834       C  0.97880354  0.98948859  0.13361485    -0.14300
H1835       H  0.01814892  0.00734121  0.09310416     0.11800
H1836       H  0.93366945  0.93282740  0.05391081     0.11800
H1837       H  0.90604735  0.93177756  0.11570741     0.11800
H1838       H  0.99048497  0.00719741  0.15482933     0.11800
C1839       C  0.94809420  0.11079991  0.92998019    -0.14300
C1840       C  0.97050718  0.13911777  0.94487650     0.07800
C1841       C  0.98840191  0.13339562  0.97879025    -0.14300
C1842       C  0.98820549  0.09827116  0.99470683    -0.14300
C1843       C  0.97010745  0.06890340  0.97684530     0.07800
C1844       C  0.94816414  0.07563572  0.94578403    -0.14300
H1845       H  0.93335280  0.11474896  0.90416447     0.11800
H1846       H  0.00548178  0.15481408  0.99100992     0.11800
H1847       H  0.00522511  0.09309873  0.01886077     0.11800
H1848       H  0.93406546  0.05305737  0.93192714     0.11800
loop_ 
_geom_bond_atom_site_label_1 
_geom_bond_atom_site_label_2 
_geom_bond_distance 
_geom_bond_site_symmetry_2 
_ccdc_geom_bond_type 
C1            C2   1.398   1_565  A
C1            C6   1.398   1_556  A
C1         C1820   1.465       .  S
C2            C3   1.399   1_455  A
C2         C1803   1.465       .  S
C3            C4   1.399   1_556  A
C3         C1843   1.466       .  S
C4            C5   1.398   1_545  A
C4         C1790   1.465       .  S
C5            C6   1.398   1_655  A
C5         C1830   1.466       .  S
C6         C1810   1.465       .  S
O7           C15   1.275       .  A
O7          Co27   2.050       .  S
O8           C16   1.275       .  A
O8          Co28   2.051       .  S
O9           C17   1.269       .  A
O9          Co29   1.971       .  S
O10          C18   1.269       .  A
O10         Co30   1.972       .  S
O11          C17   1.270       .  A
O11         Co28   1.994       .  S
O12          C18   1.270       .  A
O12         Co27   1.994       .  S
O13          C16   1.275       .  A
O13         Co30   2.012   1_655  S
O14          C15   1.275       .  A
O14         Co29   2.012   1_455  S
C15        C1753   1.477       .  S
C16        C1755   1.479       .  S
C17        C1780   1.468       .  S
C18        C1763   1.469       .  S
O19          C32   1.276       .  A
O19         Co27   2.013       .  S
O20          C33   1.275       .  A
O20         Co28   2.012       .  S
O21          C34   1.269       .  A
O21         Co29   1.992       .  S
O22          C35   1.270       .  A
O22         Co30   1.993       .  S
O23          C35   1.268   1_655  A
O23         Co28   1.969       .  S
O24          C34   1.269   1_455  A
O24         Co27   1.971       .  S
O25          C32   1.275       .  A
O25         Co30   2.051       .  S
O26          C33   1.275       .  A
O26         Co29   2.052       .  S
Co27         O31   2.108   1_455  S
Co28         O31   2.107       .  S
Co29         O31   2.107       .  S
Co30         O31   2.107   1_455  S
C32        C1751   1.479       .  S
C33        C1757   1.479       .  S
C34        C1840   1.468       .  S
C35        C1770   1.466       .  S
O36          C44   1.275       .  A
O36         Co56   2.050       .  S
O37          C45   1.275       .  A
O37         Co57   2.051       .  S
O38          C46   1.269       .  A
O38         Co58   1.970       .  S
O39          C47   1.268       .  A
O39         Co59   1.967       .  S
O40          C46   1.270       .  A
O40         Co57   1.993       .  S
O41          C47   1.270       .  A
O41         Co56   1.994       .  S
O42          C45   1.275       .  A
O42         Co59   2.011   1_565  S
O43          C44   1.275       .  A
O43         Co58   2.012   1_545  S
C44        C1716   1.478       .  S
C45        C1718   1.478       .  S
C46        C1722   1.467       .  S
C47        C1732   1.466       .  S
O48          C61   1.275       .  A
O48         Co56   2.012       .  S
O49          C62   1.275       .  A
O49         Co57   2.010       .  S
O50          C63   1.270       .  A
O50         Co58   1.995       .  S
O51          C64   1.270       .  A
O51         Co59   1.994       .  S
O52          C64   1.268   1_565  A
O52         Co57   1.969       .  S
O53          C63   1.269   1_545  A
O53         Co56   1.970       .  S
O54          C61   1.275       .  A
O54         Co59   2.051       .  S
O55          C62   1.275       .  A
O55         Co58   2.050       .  S
Co56         O60   2.107   1_545  S
Co57         O60   2.106       .  S
Co58         O60   2.107       .  S
Co59         O60   2.106   1_545  S
C61        C1714   1.478       .  S
C62        C1719   1.476       .  S
C63        C1833   1.468       .  S
C64        C1742   1.467       .  S
C65          C66   1.398       .  A
C65          C70   1.398   1_545  A
C65        C1674   1.465       .  S
C66          C67   1.398   1_455  A
C66        C1694   1.464       .  S
C67          C68   1.398   1_545  A
C67        C1745   1.466       .  S
C68          C69   1.398       .  A
C68        C1664   1.466       .  S
C69          C70   1.398   1_655  A
C69        C1704   1.464       .  S
C70        C1684   1.466       .  S
O71          C79   1.275       .  A
O71         Co91   2.051       .  S
O72          C80   1.275       .  A
O72         Co92   2.050       .  S
O73          C81   1.269       .  A
O73         Co93   1.970       .  S
O74          C82   1.269       .  A
O74         Co94   1.970       .  S
O75          C81   1.270       .  A
O75         Co92   1.994       .  S
O76          C82   1.270       .  A
O76         Co91   1.994       .  S
O77          C80   1.275       .  A
O77         Co94   2.011   1_655  S
O78          C79   1.275       .  A
O78         Co93   2.011   1_455  S
C79        C1625   1.478       .  S
C80        C1628   1.477       .  S
C81        C1654   1.468       .  S
C82        C1634   1.467       .  S
O83          C96   1.275       .  A
O83         Co91   2.013       .  S
O84          C97   1.275       .  A
O84         Co92   2.013       .  S
O85          C98   1.270       .  A
O85         Co93   1.993       .  S
O86          C99   1.270       .  A
O86         Co94   1.994       .  S
O87          C99   1.269   1_655  A
O87         Co92   1.970       .  S
O88          C98   1.268   1_455  A
O88         Co91   1.968       .  S
O89          C96   1.275       .  A
O89         Co94   2.050       .  S
O90          C97   1.275       .  A
O90         Co93   2.051       .  S
Co91         O95   2.107       .  S
Co92         O95   2.107   1_655  S
Co93         O95   2.107   1_655  S
Co94         O95   2.106       .  S
C96        C1629   1.479       .  S
C97        C1631   1.479       .  S
C98        C1707   1.467       .  S
C99        C1644   1.468       .  S
O100        C108   1.275       .  A
O100       Co120   2.051       .  S
O101        C109   1.275       .  A
O101       Co121   2.051       .  S
O102        C110   1.269       .  A
O102       Co122   1.970       .  S
O103        C111   1.269       .  A
O103       Co123   1.971       .  S
O104        C110   1.270       .  A
O104       Co121   1.993       .  S
O105        C111   1.270       .  A
O105       Co120   1.994       .  S
O106        C109   1.275       .  A
O106       Co123   2.012   1_556  S
O107        C108   1.275       .  A
O107       Co122   2.013   1_554  S
C108       C1588   1.479       .  S
C109       C1589   1.478       .  S
C110       C1596   1.467       .  S
C111       C1606   1.468       .  S
O112        C125   1.275       .  A
O112       Co120   2.011       .  S
O113        C126   1.275       .  A
O113       Co121   2.013       .  S
O114        C127   1.270       .  A
O114       Co122   1.994       .  S
O115        C128   1.270       .  A
O115       Co123   1.996       .  S
O116        C128   1.269   1_556  A
O116       Co121   1.970       .  S
O117        C127   1.268   1_554  A
O117       Co120   1.969       .  S
O118        C125   1.275       .  A
O118       Co123   2.049       .  S
O119        C126   1.275       .  A
O119       Co122   2.050       .  S
Co120       O124   2.106       .  S
Co121       O124   2.107   1_556  S
Co122       O124   2.107   1_556  S
Co123       O124   2.107       .  S
C125       C1591   1.477       .  S
C126       C1593   1.478       .  S
C127       C1823   1.467       .  S
C128       C1616   1.468       .  S
O129        C137   1.275       .  A
O129       Co149   2.012   1_655  S
O130        C138   1.275       .  A
O130       Co150   2.011   1_455  S
O131        C139   1.270       .  A
O131       Co151   1.996       .  S
O132        C140   1.270       .  A
O132       Co152   1.993       .  S
O133        C139   1.268       .  A
O133       Co150   1.969       .  S
O134        C140   1.269       .  A
O134       Co149   1.971       .  S
O135        C138   1.275       .  A
O135       Co152   2.051       .  S
O136        C137   1.274       .  A
O136       Co151   2.048       .  S
C137       C1720   1.476       .  S
C138       C1555   1.478       .  S
C139       C1568   1.468       .  S
C140       C1578   1.468       .  S
O141        C154   1.275       .  A
O141       Co149   2.051       .  S
O142        C155   1.275       .  A
O142       Co150   2.052       .  S
O143        C156   1.269   1_655  A
O143       Co151   1.970       .  S
O144        C157   1.269   1_455  A
O144       Co152   1.969       .  S
O145        C157   1.270       .  A
O145       Co150   1.992       .  S
O146        C156   1.270       .  A
O146       Co149   1.993       .  S
O147        C154   1.275       .  A
O147       Co152   2.013       .  S
O148        C155   1.275       .  A
O148       Co151   2.012       .  S
Co149       O153   2.106       .  S
Co150       O153   2.107   1_655  S
Co151       O153   2.107   1_655  S
Co152       O153   2.107       .  S
C154       C1587   1.479       .  S
C155       C1554   1.479       .  S
C156       C1813   1.468       .  S
C157       C1558   1.466       .  S
C158        C159   1.399       .  A
C158        C163   1.398       .  A
C158       C1524   1.465       .  S
C159        C160   1.399       .  A
C159       C1609   1.466       .  S
C160        C161   1.399       .  A
C160       C1581   1.466       .  S
C161        C162   1.399       .  A
C161       C1534   1.465       .  S
C162        C163   1.398       .  A
C162       C1547   1.466       .  S
C163       C1514   1.466       .  S
O164        C172   1.275       .  A
O164       Co184   2.012       .  S
O165        C173   1.275       .  A
O165       Co185   2.011       .  S
O166        C174   1.270       .  A
O166       Co186   1.994       .  S
O167        C175   1.270       .  A
O167       Co187   1.994       .  S
O168        C174   1.269       .  A
O168       Co185   1.969       .  S
O169        C175   1.269       .  A
O169       Co184   1.970       .  S
O170        C173   1.275       .  A
O170       Co187   2.051       .  S
O171        C172   1.275       .  A
O171       Co186   2.051       .  S
C172       C1630   1.479       .  S
C173       C1482   1.478       .  S
C174       C1504   1.467       .  S
C175       C1544   1.468       .  S
O176        C189   1.274       .  A
O176       Co184   2.049       .  S
O177        C190   1.275       .  A
O177       Co185   2.049       .  S
O178        C191   1.268       .  A
O178       Co186   1.968       .  S
O179        C192   1.269       .  A
O179       Co187   1.970       .  S
O180        C192   1.270       .  A
O180       Co185   1.994       .  S
O181        C191   1.270       .  A
O181       Co184   1.996       .  S
O182        C189   1.275       .  A
O182       Co187   2.012       .  S
O183        C190   1.274       .  A
O183       Co186   2.010       .  S
Co184       O188   2.107       .  S
Co185       O188   2.107       .  S
Co186       O188   2.107       .  S
Co187       O188   2.107       .  S
C189       C1477   1.477       .  S
C190       C1479   1.476       .  S
C191       C1494   1.467       .  S
C192       C1484   1.467       .  S
C193        C194   1.398       .  A
C193        C198   1.398       .  A
C193       C1458   1.464       .  S
C194        C195   1.398       .  A
C194       C1507   1.465       .  S
C195        C196   1.398       .  A
C195       C1637   1.465       .  S
C196        C197   1.399       .  A
C196       C1448   1.465       .  S
C197        C198   1.398       .  A
C197       C1599   1.465       .  S
C198       C1468   1.465       .  S
O199        C207   1.275       .  A
O199       Co219   2.051       .  S
O200        C208   1.275       .  A
O200       Co220   2.049       .  S
O201        C209   1.269       .  A
O201       Co221   1.969       .  S
O202        C210   1.269       .  A
O202       Co222   1.970       .  S
O203        C209   1.270       .  A
O203       Co220   1.993       .  S
O204        C210   1.270       .  A
O204       Co219   1.991       .  S
O205        C208   1.275       .  A
O205       Co222   2.011       .  S
O206        C207   1.275       .  A
O206       Co221   2.012       .  S
C207       C1590   1.478       .  S
C208       C1413   1.476       .  S
C209       C1418   1.467       .  S
C210       C1438   1.467       .  S
O211        C224   1.276       .  A
O211       Co219   2.013       .  S
O212        C225   1.275       .  A
O212       Co220   2.010       .  S
O213        C226   1.270       .  A
O213       Co221   1.993       .  S
O214        C227   1.270       .  A
O214       Co222   1.996       .  S
O215        C227   1.269       .  A
O215       Co220   1.970       .  S
O216        C226   1.269       .  A
O216       Co219   1.970       .  S
O217        C224   1.274       .  A
O217       Co222   2.047       .  S
O218        C225   1.275       .  A
O218       Co221   2.050       .  S
Co219       O223   2.105       .  S
Co220       O223   2.106       .  S
Co221       O223   2.107       .  S
Co222       O223   2.107       .  S
C224       C1411   1.477       .  S
C225       C1415   1.476       .  S
C226       C1471   1.467       .  S
C227       C1428   1.468       .  S
C228        C229   1.399       .  A
C228        C233   1.398       .  A
C228       C1392   1.466       .  S
C229        C230   1.399       .  A
C229       C1402   1.465       .  S
C230        C231   1.398       .  A
C230       C1783   1.466       .  S
C231        C232   1.399       .  A
C231       C1372   1.465       .  S
C232        C233   1.398       .  A
C232       C1362   1.465       .  S
C233       C1382   1.466       .  S
O234        C242   1.275       .  A
O234       Co254   2.051       .  S
O235        C243   1.274       .  A
O235       Co255   2.049       .  S
O236        C244   1.269       .  A
O236       Co256   1.971       .  S
O237        C245   1.269       .  A
O237       Co257   1.970       .  S
O238        C244   1.270       .  A
O238       Co255   1.994       .  S
O239        C245   1.270       .  A
O239       Co254   1.993       .  S
O240        C243   1.275       .  A
O240       Co257   2.012       .  S
O241        C242   1.275       .  A
O241       Co256   2.012       .  S
C242       C1756   1.479       .  S
C243       C1627   1.477       .  S
C244       C1332   1.468       .  S
C245       C1342   1.468       .  S
O246        C259   1.275       .  A
O246       Co254   2.012       .  S
O247        C260   1.275       .  A
O247       Co255   2.011       .  S
O248        C261   1.270       .  A
O248       Co256   1.994       .  S
O249        C262   1.270       .  A
O249       Co257   1.994       .  S
O250        C262   1.269       .  A
O250       Co255   1.969       .  S
O251        C261   1.268       .  A
O251       Co254   1.968       .  S
O252        C259   1.275       .  A
O252       Co257   2.050       .  S
O253        C260   1.275       .  A
O253       Co256   2.050       .  S
Co254       O258   2.106       .  S
Co255       O258   2.107       .  S
Co256       O258   2.107       .  S
Co257       O258   2.106       .  S
C259       C1330   1.478       .  S
C260       C1327   1.477       .  S
C261       C1405   1.467       .  S
C262       C1352   1.467       .  S
O263        C271   1.275       .  A
O263       Co283   2.012   1_655  S
O264        C272   1.275       .  A
O264       Co284   2.012   1_455  S
O265        C273   1.270       .  A
O265       Co285   1.994       .  S
O266        C274   1.270       .  A
O266       Co286   1.996       .  S
O267        C273   1.269       .  A
O267       Co284   1.970       .  S
O268        C274   1.268       .  A
O268       Co283   1.970       .  S
O269        C272   1.275       .  A
O269       Co286   2.050       .  S
O270        C271   1.275       .  A
O270       Co285   2.051       .  S
C271       C1713   1.478       .  S
C272       C1296   1.478       .  S
C273       C1308   1.467       .  S
C274       C1318   1.468       .  S
O275        C288   1.275       .  A
O275       Co283   2.052       .  S
O276        C289   1.275       .  A
O276       Co284   2.051       .  S
O277        C290   1.268   1_655  A
O277       Co285   1.968       .  S
O278        C291   1.269   1_455  A
O278       Co286   1.969       .  S
O279        C291   1.270       .  A
O279       Co284   1.994       .  S
O280        C290   1.270       .  A
O280       Co283   1.993       .  S
O281        C288   1.275       .  A
O281       Co286   2.012       .  S
O282        C289   1.275       .  A
O282       Co285   2.013       .  S
Co283       O287   2.107       .  S
Co284       O287   2.106   1_655  S
Co285       O287   2.108   1_655  S
Co286       O287   2.108       .  S
C288       C1293   1.480       .  S
C289       C1291   1.480       .  S
C290       C1697   1.466       .  S
C291       C1301   1.467       .  S
C292        C293   1.399       .  A
C292        C297   1.399       .  A
C292       C1242   1.466       .  S
C293        C294   1.398       .  A
C293       C1321   1.466       .  S
C294        C295   1.399       .  A
C294       C1255   1.465       .  S
C295        C296   1.398       .  A
C295       C1275   1.465       .  S
C296        C297   1.398       .  A
C296       C1262   1.466       .  S
C297       C1282   1.465       .  S
O298        C306   1.275       .  A
O298       Co318   2.013   1_556  S
O299        C307   1.275       .  A
O299       Co319   2.011   1_554  S
O300        C308   1.270       .  A
O300       Co320   1.993       .  S
O301        C309   1.270       .  A
O301       Co321   1.994       .  S
O302        C308   1.268       .  A
O302       Co319   1.968       .  S
O303        C309   1.269       .  A
O303       Co318   1.970       .  S
O304        C307   1.275       .  A
O304       Co321   2.050       .  S
O305        C306   1.275       .  A
O305       Co320   2.050       .  S
C306       C1752   1.479       .  S
C307       C1209   1.477       .  S
C308       C1232   1.466       .  S
C309       C1285   1.467       .  S
O310        C323   1.275       .  A
O310       Co318   2.050       .  S
O311        C324   1.275       .  A
O311       Co319   2.051       .  S
O312        C325   1.269   1_556  A
O312       Co320   1.969       .  S
O313        C326   1.269   1_554  A
O313       Co321   1.969       .  S
O314        C326   1.270       .  A
O314       Co319   1.995       .  S
O315        C325   1.270       .  A
O315       Co318   1.995       .  S
O316        C323   1.275       .  A
O316       Co321   2.011       .  S
O317        C324   1.275       .  A
O317       Co320   2.012       .  S
Co318       O322   2.108       .  S
Co319       O322   2.107   1_556  S
Co320       O322   2.106   1_556  S
Co321       O322   2.106       .  S
C323       C1208   1.478       .  S
C324       C1205   1.479       .  S
C325       C1212   1.467       .  S
C326       C1222   1.468       .  S
C327        C328   1.398       .  A
C327        C332   1.398       .  A
C327       C1235   1.464       .  S
C328        C329   1.398       .  A
C328       C1760   1.467       .  S
C329        C330   1.399       .  A
C329       C1176   1.465       .  S
C330        C331   1.398       .  A
C330       C1166   1.465       .  S
C331        C332   1.398       .  A
C331       C1196   1.466       .  S
C332       C1186   1.465       .  S
O333        C341   1.275       .  A
O333       Co353   2.051       .  S
O334        C342   1.275       .  A
O334       Co354   2.052       .  S
O335        C343   1.269       .  A
O335       Co355   1.969       .  S
O336        C344   1.268       .  A
O336       Co356   1.969       .  S
O337        C343   1.270       .  A
O337       Co354   1.992       .  S
O338        C344   1.270       .  A
O338       Co353   1.994       .  S
O339        C342   1.275       .  A
O339       Co356   2.011       .  S
O340        C341   1.275       .  A
O340       Co355   2.013       .  S
C341       C1137   1.479       .  S
C342       C1141   1.478       .  S
C343       C1156   1.466       .  S
C344       C1146   1.467       .  S
O345        C358   1.274       .  A
O345       Co353   2.010       .  S
O346        C359   1.275       .  A
O346       Co354   2.013       .  S
O347        C360   1.270       .  A
O347       Co355   1.995       .  S
O348        C361   1.270       .  A
O348       Co356   1.994       .  S
O349        C361   1.269       .  A
O349       Co354   1.970       .  S
O350        C360   1.268       .  A
O350       Co353   1.969       .  S
O351        C358   1.275       .  A
O351       Co356   2.049       .  S
O352        C359   1.275       .  A
O352       Co355   2.050       .  S
Co353       O357   2.106       .  S
Co354       O357   2.107       .  S
Co355       O357   2.107       .  S
Co356       O357   2.108       .  S
C358       C1144   1.476       .  S
C359       C1140   1.478       .  S
C360       C1385   1.467       .  S
C361       C1199   1.468       .  S
O362        C370   1.275       .  A
O362       Co382   2.011   1_565  S
O363        C371   1.274       .  A
O363       Co383   2.009   1_545  S
O364        C372   1.270       .  A
O364       Co384   1.996       .  S
O365        C373   1.270       .  A
O365       Co385   1.993       .  S
O366        C372   1.268       .  A
O366       Co383   1.968       .  S
O367        C373   1.269       .  A
O367       Co382   1.970       .  S
O368        C371   1.275       .  A
O368       Co385   2.050       .  S
O369        C370   1.274       .  A
O369       Co384   2.049       .  S
C370       C1592   1.477       .  S
C371       C1115   1.476       .  S
C372       C1527   1.467       .  S
C373       C1272   1.467       .  S
O374        C387   1.275       .  A
O374       Co382   2.051       .  S
O375        C388   1.274       .  A
O375       Co383   2.050       .  S
O376        C389   1.269   1_565  A
O376       Co384   1.969       .  S
O377        C390   1.268   1_545  A
O377       Co385   1.968       .  S
O378        C390   1.270       .  A
O378       Co383   1.995       .  S
O379        C389   1.270       .  A
O379       Co382   1.995       .  S
O380        C387   1.275       .  A
O380       Co385   2.012       .  S
O381        C388   1.275       .  A
O381       Co384   2.011       .  S
Co382       O386   2.107   1_545  S
Co383       O386   2.107       .  S
Co384       O386   2.106       .  S
Co385       O386   2.106   1_545  S
C387       C1113   1.478       .  S
C388       C1111   1.477       .  S
C389       C1118   1.467       .  S
C390       C1131   1.467       .  S
C391        C392   1.398       .  A
C391        C396   1.398       .  A
C391       C1159   1.464       .  S
C392        C393   1.398   1_545  A
C392       C1085   1.466       .  S
C393        C394   1.398       .  A
C393       C1128   1.465       .  S
C394        C395   1.398       .  A
C394       C1102   1.464       .  S
C395        C396   1.398   1_565  A
C395       C1072   1.466       .  S
C396       C1092   1.465       .  S
O397        C405   1.275       .  A
O397       Co417   2.013       .  S
O398        C406   1.275       .  A
O398       Co418   2.011       .  S
O399        C407   1.270       .  A
O399       Co419   1.993       .  S
O400        C408   1.270       .  A
O400       Co420   1.992       .  S
O401        C407   1.269       .  A
O401       Co418   1.970       .  S
O402        C408   1.269       .  A
O402       Co417   1.969       .  S
O403        C406   1.275       .  A
O403       Co420   2.051       .  S
O404        C405   1.274       .  A
O404       Co419   2.050       .  S
C405       C1481   1.478       .  S
C406       C1049   1.478       .  S
C407       C1052   1.467       .  S
C408       C1105   1.466       .  S
O409        C422   1.275       .  A
O409       Co417   2.050       .  S
O410        C423   1.274       .  A
O410       Co418   2.048       .  S
O411        C424   1.269       .  A
O411       Co419   1.970       .  S
O412        C425   1.269       .  A
O412       Co420   1.969       .  S
O413        C425   1.270       .  A
O413       Co418   1.996       .  S
O414        C424   1.270       .  A
O414       Co417   1.995       .  S
O415        C422   1.275       .  A
O415       Co420   2.011       .  S
O416        C423   1.274       .  A
O416       Co419   2.010       .  S
Co417       O421   2.107       .  S
Co418       O421   2.108       .  S
Co419       O421   2.105       .  S
Co420       O421   2.106       .  S
C422       C1112   1.477       .  S
C423       C1048   1.475       .  S
C424       C1517   1.468       .  S
C425       C1062   1.468       .  S
O426        C434   1.274       .  A
O426       Co446   2.010       .  S
O427        C435   1.275       .  A
O427       Co447   2.012       .  S
O428        C436   1.270       .  A
O428       Co448   1.995       .  S
O429        C437   1.270       .  A
O429       Co449   1.995       .  S
O430        C436   1.269   1_545  A
O430       Co447   1.970       .  S
O431        C437   1.268   1_565  A
O431       Co446   1.968       .  S
O432        C435   1.275       .  A
O432       Co449   2.051       .  S
O433        C434   1.275       .  A
O433       Co448   2.050       .  S
C434       C1412   1.477       .  S
C435       C1139   1.478       .  S
C436       C1041   1.468       .  S
C437       C1095   1.467       .  S
O438        C451   1.275       .  A
O438       Co446   2.051       .  S
O439        C452   1.275       .  A
O439       Co447   2.049       .  S
O440        C453   1.268       .  A
O440       Co448   1.969       .  S
O441        C454   1.268       .  A
O441       Co449   1.968       .  S
O442        C454   1.270       .  A
O442       Co447   1.995       .  S
O443        C453   1.270       .  A
O443       Co446   1.994       .  S
O444        C451   1.275       .  A
O444       Co449   2.012   1_565  S
O445        C452   1.274       .  A
O445       Co448   2.010   1_545  S
Co446       O450   2.106       .  S
Co447       O450   2.107   1_545  S
Co448       O450   2.107       .  S
Co449       O450   2.107   1_545  S
C451       C1026   1.479       .  S
C452       C1023   1.477       .  S
C453       C1028   1.467       .  S
C454       C1365   1.467       .  S
C455        C456   1.399       .  A
C455        C460   1.398   1_565  A
C455       C1038   1.466       .  S
C456        C457   1.398   1_556  A
C456       C1441   1.464       .  S
C457        C458   1.398   1_565  A
C457       C1619   1.466       .  S
C458        C459   1.399       .  A
C458       C1121   1.466       .  S
C459        C460   1.399   1_554  A
C459       C1014   1.465       .  S
C460       C1004   1.466       .  S
O461        C469   1.275       .  A
O461       Co481   2.011       .  S
O462        C470   1.275       .  A
O462       Co482   2.011       .  S
O463        C471   1.270       .  A
O463       Co483   1.993       .  S
O464        C472   1.270       .  A
O464       Co484   1.992       .  S
O465        C471   1.268       .  A
O465       Co482   1.969       .  S
O466        C472   1.269       .  A
O466       Co481   1.970       .  S
O467        C470   1.275       .  A
O467       Co484   2.051       .  S
O468        C469   1.275       .  A
O468       Co483   2.050       .  S
C469       C1210   1.477       .  S
C470        C982   1.478       .  S
C471        C984   1.467       .  S
C472       C1017   1.467       .  S
O473        C486   1.275       .  A
O473       Co481   2.049       .  S
O474        C487   1.275       .  A
O474       Co482   2.050       .  S
O475        C488   1.269       .  A
O475       Co483   1.970       .  S
O476        C489   1.269       .  A
O476       Co484   1.970       .  S
O477        C489   1.270       .  A
O477       Co482   1.994       .  S
O478        C488   1.270       .  A
O478       Co481   1.995       .  S
O479        C486   1.276       .  A
O479       Co484   2.013       .  S
O480        C487   1.275       .  A
O480       Co483   2.012       .  S
Co481       O485   2.107       .  S
Co482       O485   2.108       .  S
Co483       O485   2.106       .  S
Co484       O485   2.106       .  S
C486       C1114   1.478       .  S
C487        C979   1.478       .  S
C488       C1265   1.468       .  S
C489        C994   1.467       .  S
O490        C498   1.275       .  A
O490       Co510   2.050       .  S
O491        C499   1.275       .  A
O491       Co511   2.050       .  S
O492        C500   1.269       .  A
O492       Co512   1.970       .  S
O493        C501   1.269       .  A
O493       Co513   1.969       .  S
O494        C500   1.269       .  A
O494       Co511   1.992       .  S
O495        C501   1.270       .  A
O495       Co510   1.993       .  S
O496        C499   1.275       .  A
O496       Co513   2.012       .  S
O497        C498   1.276       .  A
O497       Co512   2.014       .  S
C498       C1294   1.479       .  S
C499       C1142   1.478       .  S
C500       C1169   1.467       .  S
C501       C1252   1.467       .  S
O502        C515   1.275       .  A
O502       Co510   2.010       .  S
O503        C516   1.276       .  A
O503       Co511   2.013       .  S
O504        C517   1.269       .  A
O504       Co512   1.993       .  S
O505        C518   1.269       .  A
O505       Co513   1.993       .  S
O506        C518   1.269       .  A
O506       Co511   1.971       .  S
O507        C517   1.269       .  A
O507       Co510   1.970       .  S
O508        C515   1.275       .  A
O508       Co513   2.049       .  S
O509        C516   1.275       .  A
O509       Co512   2.051       .  S
Co510       O514   2.106       .  S
Co511       O514   2.106       .  S
Co512       O514   2.107       .  S
Co513       O514   2.107       .  S
C515       C1116   1.476       .  S
C516        C978   1.479       .  S
C517       C1677   1.467       .  S
C518       C1082   1.468       .  S
C519        C520   1.398       .  A
C519        C524   1.399       .  A
C519       C1725   1.465       .  S
C520        C521   1.398       .  A
C520       C1571   1.466       .  S
C521        C522   1.398       .  A
C521        C958   1.465       .  S
C522        C523   1.398       .  A
C522        C968   1.465       .  S
C523        C524   1.398       .  A
C523       C1065   1.466       .  S
C524        C951   1.465       .  S
O525        C533   1.274       .  A
O525       Co545   2.048       .  S
O526        C534   1.275       .  A
O526       Co546   2.050       .  S
O527        C535   1.268       .  A
O527       Co547   1.968       .  S
O528        C536   1.269       .  A
O528       Co548   1.969       .  S
O529        C535   1.270       .  A
O529       Co546   1.994       .  S
O530        C536   1.271       .  A
O530       Co545   1.996       .  S
O531        C534   1.275       .  A
O531       Co548   2.012       .  S
O532        C533   1.274       .  A
O532       Co547   2.010       .  S
C533       C1047   1.475       .  S
C534        C980   1.478       .  S
C535        C921   1.467       .  S
C536        C928   1.468       .  S
O537        C550   1.275       .  A
O537       Co545   2.012       .  S
O538        C551   1.275       .  A
O538       Co546   2.012       .  S
O539        C552   1.270       .  A
O539       Co547   1.994       .  S
O540        C553   1.270       .  A
O540       Co548   1.994       .  S
O541        C553   1.268       .  A
O541       Co546   1.968       .  S
O542        C552   1.269       .  A
O542       Co545   1.970       .  S
O543        C550   1.274       .  A
O543       Co548   2.050       .  S
O544        C551   1.274       .  A
O544       Co547   2.050       .  S
Co545       O549   2.107       .  S
Co546       O549   2.107       .  S
Co547       O549   2.106       .  S
Co548       O549   2.106       .  S
C550        C914   1.478       .  S
C551        C915   1.478       .  S
C552        C971   1.467       .  S
C553        C938   1.466       .  S
C554        C555   1.398       .  A
C554        C559   1.398       .  A
C554       C1311   1.465       .  S
C555        C556   1.399       .  A
C555       C1735   1.464       .  S
C556        C557   1.398       .  A
C556        C894   1.466       .  S
C557        C558   1.398       .  A
C557        C997   1.465       .  S
C558        C559   1.398       .  A
C558        C941   1.464       .  S
C559        C904   1.465       .  S
C560        C561   1.398       .  A
C560        C565   1.399       .  A
C560        C877   1.464       .  S
C561        C562   1.398       .  A
C561       C1657   1.466       .  S
C562        C563   1.398       .  A
C562       C1355   1.465       .  S
C563        C564   1.398       .  A
C563        C884   1.465       .  S
C564        C565   1.398       .  A
C564       C1431   1.466       .  S
C565       C1031   1.465       .  S
O566        C574   1.275       .  A
O566       Co586   2.012   1_565  S
O567        C575   1.275       .  A
O567       Co587   2.012   1_545  S
O568        C576   1.270       .  A
O568       Co588   1.994       .  S
O569        C577   1.270       .  A
O569       Co589   1.994       .  S
O570        C576   1.268       .  A
O570       Co587   1.968       .  S
O571        C577   1.269       .  A
O571       Co586   1.969       .  S
O572        C575   1.275       .  A
O572       Co589   2.051       .  S
O573        C574   1.275       .  A
O573       Co588   2.051       .  S
C574       C1594   1.478       .  S
C575        C977   1.479       .  S
C576       C1451   1.466       .  S
C577       C1179   1.467       .  S
O578        C591   1.275       .  A
O578       Co586   2.049       .  S
O579        C592   1.275       .  A
O579       Co587   2.050       .  S
O580        C593   1.269   1_565  A
O580       Co588   1.969       .  S
O581        C594   1.269   1_545  A
O581       Co589   1.970       .  S
O582        C594   1.270       .  A
O582       Co587   1.994       .  S
O583        C593   1.270       .  A
O583       Co586   1.995       .  S
O584        C591   1.275       .  A
O584       Co589   2.012       .  S
O585        C592   1.275       .  A
O585       Co588   2.012       .  S
Co586       O590   2.107       .  S
Co587       O590   2.107   1_565  S
Co588       O590   2.107   1_565  S
Co589       O590   2.107       .  S
C591       C1754   1.477       .  S
C592       C1626   1.478       .  S
C593       C1800   1.467       .  S
C594       C1687   1.468       .  S
O595        C603   1.275       .  A
O595       Co615   2.012       .  S
O596        C604   1.275       .  A
O596       Co616   2.011       .  S
O597        C605   1.270       .  A
O597       Co617   1.995       .  S
O598        C606   1.269       .  A
O598       Co618   1.993       .  S
O599        C605   1.268       .  A
O599       Co616   1.969       .  S
O600        C606   1.269       .  A
O600       Co615   1.970       .  S
O601        C604   1.275       .  A
O601       Co618   2.051       .  S
O602        C603   1.275       .  A
O602       Co617   2.049       .  S
C603       C1328   1.477       .  S
C604        C913   1.478       .  S
C605        C864   1.467       .  S
C606        C854   1.467       .  S
O607        C620   1.275       .  A
O607       Co615   2.051       .  S
O608        C621   1.275       .  A
O608       Co616   2.052       .  S
O609        C622   1.269       .  A
O609       Co617   1.972       .  S
O610        C623   1.269       .  A
O610       Co618   1.970       .  S
O611        C623   1.269       .  A
O611       Co616   1.992       .  S
O612        C622   1.269       .  A
O612       Co615   1.992       .  S
O613        C620   1.276       .  A
O613       Co618   2.013       .  S
O614        C621   1.276       .  A
O614       Co617   2.013       .  S
Co615       O619   2.107       .  S
Co616       O619   2.107       .  S
Co617       O619   2.108       .  S
Co618       O619   2.107       .  S
C620       C1138   1.479       .  S
C621       C1292   1.480       .  S
C622       C1395   1.468       .  S
C623        C907   1.467       .  S
C624        C625   1.398       .  A
C624        C629   1.398       .  A
C624       C1497   1.465       .  S
C625        C626   1.398   1_455  A
C625       C1647   1.465       .  S
C626        C627   1.398       .  A
C626       C1335   1.466       .  S
C627        C628   1.399       .  A
C627        C867   1.466       .  S
C628        C629   1.398   1_655  A
C628       C1298   1.465       .  S
C629        C844   1.466       .  S
O630        C638   1.275       .  A
O630       Co650   2.050       .  S
O631        C639   1.275       .  A
O631       Co651   2.050       .  S
O632        C640   1.269       .  A
O632       Co652   1.970       .  S
O633        C641   1.268       .  A
O633       Co653   1.969       .  S
O634        C640   1.270       .  A
O634       Co651   1.994       .  S
O635        C641   1.270       .  A
O635       Co650   1.994       .  S
O636        C639   1.274       .  A
O636       Co653   2.010   1_556  S
O637        C638   1.275       .  A
O637       Co652   2.012   1_554  S
C638       C1553   1.478       .  S
C639       C1414   1.477       .  S
C640        C887   1.467       .  S
C641        C961   1.467       .  S
O642        C655   1.274       .  A
O642       Co650   2.011       .  S
O643        C656   1.275       .  A
O643       Co651   2.011       .  S
O644        C657   1.270       .  A
O644       Co652   1.995       .  S
O645        C658   1.270       .  A
O645       Co653   1.994       .  S
O646        C658   1.269   1_556  A
O646       Co651   1.970       .  S
O647        C657   1.268   1_554  A
O647       Co650   1.968       .  S
O648        C655   1.275       .  A
O648       Co653   2.051       .  S
O649        C656   1.275       .  A
O649       Co652   2.050       .  S
Co650       O654   2.106   1_554  S
Co651       O654   2.107       .  S
Co652       O654   2.108       .  S
Co653       O654   2.107   1_554  S
C655        C916   1.478       .  S
C656       C1329   1.478       .  S
C657        C824   1.467       .  S
C658        C837   1.468       .  S
C659        C660   1.398       .  A
C659        C664   1.398       .  A
C659        C918   1.465       .  S
C660        C661   1.398   1_554  A
C660        C834   1.466       .  S
C661        C662   1.398       .  A
C661       C1421   1.465       .  S
C662        C663   1.398       .  A
C662        C814   1.465       .  S
C663        C664   1.398   1_556  A
C663       C1225   1.466       .  S
C664        C987   1.465       .  S
O665        C673   1.276       .  A
O665       Co685   2.014   1_556  S
O666        C674   1.275       .  A
O666       Co686   2.012   1_554  S
O667        C675   1.270       .  A
O667       Co687   1.993       .  S
O668        C676   1.270       .  A
O668       Co688   1.992       .  S
O669        C675   1.269       .  A
O669       Co686   1.971       .  S
O670        C676   1.269       .  A
O670       Co685   1.971       .  S
O671        C674   1.275       .  A
O671       Co688   2.050       .  S
O672        C673   1.275       .  A
O672       Co687   2.051       .  S
C673       C1758   1.479       .  S
C674        C981   1.478       .  S
C675       C1375   1.468       .  S
C676        C897   1.468       .  S
O677        C690   1.275       .  A
O677       Co685   2.051       .  S
O678        C691   1.275       .  A
O678       Co686   2.049       .  S
O679        C692   1.268   1_556  A
O679       Co687   1.969       .  S
O680        C693   1.268   1_554  A
O680       Co688   1.969       .  S
O681        C693   1.270       .  A
O681       Co686   1.995       .  S
O682        C692   1.270       .  A
O682       Co685   1.994       .  S
O683        C690   1.275       .  A
O683       Co688   2.012       .  S
O684        C691   1.275       .  A
O684       Co687   2.011       .  S
Co685       O689   2.107   1_554  S
Co686       O689   2.107       .  S
Co687       O689   2.106       .  S
Co688       O689   2.106   1_554  S
C690       C1715   1.478       .  S
C691       C1024   1.476       .  S
C692       C1793   1.467       .  S
C693       C1007   1.467       .  S
O694        C702   1.274       .  A
O694       Co714   2.049       .  S
O695        C703   1.275       .  A
O695       Co715   2.050       .  S
O696        C704   1.269       .  A
O696       Co716   1.969       .  S
O697        C705   1.268       .  A
O697       Co717   1.968       .  S
O698        C704   1.270       .  A
O698       Co715   1.994       .  S
O699        C705   1.270       .  A
O699       Co714   1.994       .  S
O700        C703   1.275       .  A
O700       Co717   2.013       .  S
O701        C702   1.274       .  A
O701       Co716   2.010       .  S
C702       C1480   1.476       .  S
C703       C1206   1.479       .  S
C704       C1189   1.467       .  S
C705       C1461   1.466       .  S
O706        C719   1.274       .  A
O706       Co714   2.010       .  S
O707        C720   1.275       .  A
O707       Co715   2.011       .  S
O708        C721   1.270       .  A
O708       Co716   1.997       .  S
O709        C722   1.270       .  A
O709       Co717   1.994       .  S
O710        C722   1.269       .  A
O710       Co715   1.969       .  S
O711        C721   1.268       .  A
O711       Co714   1.969       .  S
O712        C719   1.275       .  A
O712       Co717   2.050       .  S
O713        C720   1.274       .  A
O713       Co716   2.047       .  S
Co714       O718   2.107       .  S
Co715       O718   2.106       .  S
Co716       O718   2.107       .  S
Co717       O718   2.107       .  S
C719       C1416   1.477       .  S
C720       C1143   1.476       .  S
C721        C804   1.468       .  S
C722        C817   1.467       .  S
O723        C731   1.275       .  A
O723       Co743   2.050       .  S
O724        C732   1.275       .  A
O724       Co744   2.050       .  S
O725        C733   1.269       .  A
O725       Co745   1.971       .  S
O726        C734   1.269       .  A
O726       Co746   1.971       .  S
O727        C733   1.270       .  A
O727       Co744   1.994       .  S
O728        C734   1.270       .  A
O728       Co743   1.993       .  S
O729        C732   1.276       .  A
O729       Co746   2.013       .  S
O730        C731   1.276       .  A
O730       Co745   2.012       .  S
C731       C1717   1.478       .  S
C732       C1025   1.478       .  S
C733       C1075   1.468       .  S
C734       C1667   1.468       .  S
O735        C748   1.275       .  A
O735       Co743   2.013       .  S
O736        C749   1.275       .  A
O736       Co744   2.012       .  S
O737        C750   1.270       .  A
O737       Co745   1.993       .  S
O738        C751   1.270       .  A
O738       Co746   1.993       .  S
O739        C751   1.268       .  A
O739       Co744   1.969       .  S
O740        C750   1.269       .  A
O740       Co743   1.970       .  S
O741        C748   1.275       .  A
O741       Co746   2.051       .  S
O742        C749   1.275       .  A
O742       Co745   2.050       .  S
Co743       O747   2.107       .  S
Co744       O747   2.107       .  S
Co745       O747   2.106       .  S
Co746       O747   2.107       .  S
C748       C1632   1.479       .  S
C749       C1050   1.477       .  S
C750        C948   1.467       .  S
C751        C874   1.466       .  S
O752        C760   1.275       .  A
O752       Co772   2.012       .  S
O753        C761   1.276       .  A
O753       Co773   2.013       .  S
O754        C762   1.270       .  A
O754       Co774   1.992       .  S
O755        C763   1.270       .  A
O755       Co775   1.995       .  S
O756        C762   1.269       .  A
O756       Co773   1.971       .  S
O757        C763   1.269       .  A
O757       Co772   1.970       .  S
O758        C761   1.275       .  A
O758       Co775   2.049       .  S
O759        C760   1.275       .  A
O759       Co774   2.051       .  S
C760       C1556   1.478       .  S
C761       C1295   1.478       .  S
C762        C794   1.468       .  S
C763        C847   1.468       .  S
O764        C777   1.275       .  A
O764       Co772   2.050       .  S
O765        C778   1.275       .  A
O765       Co773   2.050       .  S
O766        C779   1.268       .  A
O766       Co774   1.969       .  S
O767        C780   1.269       .  A
O767       Co775   1.970       .  S
O768        C780   1.270       .  A
O768       Co773   1.993       .  S
O769        C779   1.270       .  A
O769       Co772   1.993       .  S
O770        C777   1.275       .  A
O770       Co775   2.011       .  S
O771        C778   1.275       .  A
O771       Co774   2.012       .  S
Co772       O776   2.107       .  S
Co773       O776   2.106       .  S
Co774       O776   2.107       .  S
Co775       O776   2.107       .  S
C777       C1478   1.477       .  S
C778       C1207   1.478       .  S
C779       C1537   1.467       .  S
C780       C1245   1.468       .  S
C781        C782   1.397       .  A
C781        C786   1.398       .  A
C781        C807   1.466       .  S
C782        C783   1.398       .  A
C782       C1487   1.465       .  S
C783        C784   1.399       .  A
C783       C1055   1.465       .  S
C784        C785   1.398       .  A
C784        C931   1.466       .  S
C785        C786   1.399       .  A
C785        C857   1.465       .  S
C786       C1149   1.465       .  S
C787        C788   1.398   1_655  A
C787        C792   1.398       .  A
C787       C1345   1.466       .  S
C788        C789   1.398   1_556  A
C788       C1773   1.464       .  S
C789        C790   1.398       .  A
C789       C1215   1.465       .  S
C790        C791   1.399   1_455  A
C790        C797   1.466       .  S
C791        C792   1.398   1_554  A
C791       C1561   1.464       .  S
C792        C827   1.465       .  S
C793        C794   1.410       .  A
C793        C798   1.392       .  A
C793        H799   1.083       .  S
C794        C795   1.400       .  A
C795        C796   1.391       .  A
C795        H800   1.083       .  S
C796        C797   1.402       .  A
C796        H801   1.083   1_455  S
C797        C798   1.395       .  A
C798        H802   1.083       .  S
C803        C804   1.410       .  A
C803        C808   1.392       .  A
C803        H809   1.083       .  S
C804        C805   1.400       .  A
C805        C806   1.392       .  A
C805        H810   1.083       .  S
C806        C807   1.402       .  A
C806        H811   1.083       .  S
C807        C808   1.395       .  A
C808        H812   1.083       .  S
C813        C814   1.402       .  A
C813        C818   1.391       .  A
C813        H819   1.083       .  S
C814        C815   1.395       .  A
C815        C816   1.392       .  A
C815        H820   1.083       .  S
C816        C817   1.410       .  A
C816        H821   1.083       .  S
C817        C818   1.400       .  A
C818        H822   1.083       .  S
C823        C824   1.410       .  A
C823        C828   1.392       .  A
C823        H829   1.083       .  S
C824        C825   1.400       .  A
C825        C826   1.391       .  A
C825        H830   1.083   1_556  S
C826        C827   1.401       .  A
C826        H831   1.083   1_556  S
C827        C828   1.395       .  A
C828        H832   1.083       .  S
C833        C834   1.395       .  A
C833        C838   1.392       .  A
C833        H839   1.083       .  S
C834        C835   1.402       .  A
C835        C836   1.392       .  A
C835        H840   1.083   1_554  S
C836        C837   1.400       .  A
C836        H841   1.083   1_554  S
C837        C838   1.410       .  A
C838        H842   1.083       .  S
C843        C844   1.395       .  A
C843        C848   1.392       .  A
C843        H849   1.083       .  S
C844        C845   1.402       .  A
C845        C846   1.392       .  A
C845        H850   1.083   1_455  S
C846        C847   1.400       .  A
C846        H851   1.083       .  S
C847        C848   1.410       .  A
C848        H852   1.083       .  S
C853        C854   1.400       .  A
C853        C858   1.391       .  A
C853        H859   1.083       .  S
C854        C855   1.410       .  A
C855        C856   1.392       .  A
C855        H860   1.083       .  S
C856        C857   1.395       .  A
C856        H861   1.083       .  S
C857        C858   1.402       .  A
C858        H862   1.083       .  S
C863        C864   1.400       .  A
C863        C868   1.392       .  A
C863        H869   1.083       .  S
C864        C865   1.410       .  A
C865        C866   1.392       .  A
C865        H870   1.083       .  S
C866        C867   1.395       .  A
C866        H871   1.083       .  S
C867        C868   1.402       .  A
C868        H872   1.083       .  S
C873        C874   1.400       .  A
C873        C878   1.391       .  A
C873        H879   1.083       .  S
C874        C875   1.410       .  A
C875        C876   1.391       .  A
C875        H880   1.083       .  S
C876        C877   1.395       .  A
C876        H881   1.083       .  S
C877        C878   1.402       .  A
C878        H882   1.083       .  S
C883        C884   1.402       .  A
C883        C888   1.391       .  A
C883        H889   1.083       .  S
C884        C885   1.395       .  A
C885        C886   1.392       .  A
C885        H890   1.083       .  S
C886        C887   1.410       .  A
C886        H891   1.083       .  S
C887        C888   1.400       .  A
C888        H892   1.083       .  S
C893        C894   1.395       .  A
C893        C898   1.391       .  A
C893        H899   1.083       .  S
C894        C895   1.402       .  A
C895        C896   1.392       .  A
C895        H900   1.083       .  S
C896        C897   1.400       .  A
C896        H901   1.083       .  S
C897        C898   1.410       .  A
C898        H902   1.083       .  S
C903        C904   1.395       .  A
C903        C908   1.392       .  A
C903        H909   1.083       .  S
C904        C905   1.402       .  A
C905        C906   1.391       .  A
C905        H910   1.083       .  S
C906        C907   1.400       .  A
C906        H911   1.083       .  S
C907        C908   1.410       .  A
C908        H912   1.083       .  S
C913        C914   1.231       .  T
C915        C916   1.231       .  T
C917        C918   1.402       .  A
C917        C922   1.391       .  A
C917        H923   1.083       .  S
C918        C919   1.395       .  A
C919        C920   1.392       .  A
C919        H924   1.083       .  S
C920        C921   1.410       .  A
C920        H925   1.083       .  S
C921        C922   1.400       .  A
C922        H926   1.083       .  S
C927        C928   1.400       .  A
C927        C932   1.391       .  A
C927        H933   1.083       .  S
C928        C929   1.410       .  A
C929        C930   1.392       .  A
C929        H934   1.083       .  S
C930        C931   1.395       .  A
C930        H935   1.083       .  S
C931        C932   1.402       .  A
C932        H936   1.083       .  S
C937        C938   1.400       .  A
C937        C942   1.391       .  A
C937        H943   1.083       .  S
C938        C939   1.410       .  A
C939        C940   1.391       .  A
C939        H944   1.083       .  S
C940        C941   1.395       .  A
C940        H945   1.083       .  S
C941        C942   1.401       .  A
C942        H946   1.083       .  S
C947        C948   1.400       .  A
C947        C952   1.391       .  A
C947        H953   1.083       .  S
C948        C949   1.410       .  A
C949        C950   1.391       .  A
C949        H954   1.083       .  S
C950        C951   1.395       .  A
C950        H955   1.083       .  S
C951        C952   1.402       .  A
C952        H956   1.083       .  S
C957        C958   1.395       .  A
C957        C962   1.391       .  A
C957        H963   1.083       .  S
C958        C959   1.402       .  A
C959        C960   1.391       .  A
C959        H964   1.083       .  S
C960        C961   1.400       .  A
C960        H965   1.083       .  S
C961        C962   1.410       .  A
C962        H966   1.083       .  S
C967        C968   1.395       .  A
C967        C972   1.392       .  A
C967        H973   1.083       .  S
C968        C969   1.402       .  A
C969        C970   1.391       .  A
C969        H974   1.083       .  S
C970        C971   1.400       .  A
C970        H975   1.083       .  S
C971        C972   1.410       .  A
C972        H976   1.083       .  S
C977        C978   1.232       .  T
C979        C980   1.231       .  T
C981        C982   1.231       .  T
C983        C984   1.400       .  A
C983        C988   1.392       .  A
C983        H989   1.083       .  S
C984        C985   1.410       .  A
C985        C986   1.391       .  A
C985        H990   1.083       .  S
C986        C987   1.395       .  A
C986        H991   1.083       .  S
C987        C988   1.402       .  A
C988        H992   1.083   1_554  S
C993        C994   1.410       .  A
C993        C998   1.392       .  A
C993        H999   1.083       .  S
C994        C995   1.400       .  A
C995        C996   1.391       .  A
C995       H1000   1.083       .  S
C996        C997   1.402       .  A
C996       H1001   1.083       .  S
C997        C998   1.395       .  A
C998       H1002   1.083       .  S
C1003      C1004   1.401       .  A
C1003      C1008   1.391       .  A
C1003      H1009   1.083   1_546  S
C1004      C1005   1.395       .  A
C1005      C1006   1.392       .  A
C1005      H1010   1.083       .  S
C1006      C1007   1.410       .  A
C1006      H1011   1.083       .  S
C1007      C1008   1.400       .  A
C1008      H1012   1.083   1_556  S
C1013      C1014   1.402       .  A
C1013      C1018   1.391       .  A
C1013      H1019   1.083   1_554  S
C1014      C1015   1.395       .  A
C1015      C1016   1.391       .  A
C1015      H1020   1.083       .  S
C1016      C1017   1.410       .  A
C1016      H1021   1.083       .  S
C1017      C1018   1.400       .  A
C1018      H1022   1.083       .  S
C1023      C1024   1.230       .  T
C1025      C1026   1.232       .  T
C1027      C1028   1.400       .  A
C1027      C1032   1.391       .  A
C1027      H1033   1.083       .  S
C1028      C1029   1.410       .  A
C1029      C1030   1.392       .  A
C1029      H1034   1.083       .  S
C1030      C1031   1.395       .  A
C1030      H1035   1.083       .  S
C1031      C1032   1.402       .  A
C1032      H1036   1.083       .  S
C1037      C1038   1.402       .  A
C1037      C1042   1.392       .  A
C1037      H1043   1.083   1_565  S
C1038      C1039   1.395       .  A
C1039      C1040   1.392       .  A
C1039      H1044   1.083       .  S
C1040      C1041   1.410       .  A
C1040      H1045   1.083       .  S
C1041      C1042   1.400       .  A
C1042      H1046   1.083   1_565  S
C1047      C1048   1.230       .  T
C1049      C1050   1.231       .  T
C1051      C1052   1.400       .  A
C1051      C1056   1.392       .  A
C1051      H1057   1.083       .  S
C1052      C1053   1.410       .  A
C1053      C1054   1.391       .  A
C1053      H1058   1.083       .  S
C1054      C1055   1.395       .  A
C1054      H1059   1.083       .  S
C1055      C1056   1.402       .  A
C1056      H1060   1.083       .  S
C1061      C1062   1.410       .  A
C1061      C1066   1.392       .  A
C1061      H1067   1.083       .  S
C1062      C1063   1.400       .  A
C1063      C1064   1.392       .  A
C1063      H1068   1.083       .  S
C1064      C1065   1.402       .  A
C1064      H1069   1.083       .  S
C1065      C1066   1.395       .  A
C1066      H1070   1.083       .  S
C1071      C1072   1.395       .  A
C1071      C1076   1.392       .  A
C1071      H1077   1.083       .  S
C1072      C1073   1.402       .  A
C1073      C1074   1.391       .  A
C1073      H1078   1.083   1_565  S
C1074      C1075   1.400       .  A
C1074      H1079   1.083       .  S
C1075      C1076   1.410       .  A
C1076      H1080   1.083       .  S
C1081      C1082   1.400       .  A
C1081      C1086   1.391       .  A
C1081      H1087   1.083       .  S
C1082      C1083   1.410       .  A
C1083      C1084   1.392       .  A
C1083      H1088   1.083       .  S
C1084      C1085   1.395       .  A
C1084      H1089   1.083       .  S
C1085      C1086   1.402       .  A
C1086      H1090   1.083   1_545  S
C1091      C1092   1.395       .  A
C1091      C1096   1.392       .  A
C1091      H1097   1.083       .  S
C1092      C1093   1.401       .  A
C1093      C1094   1.391       .  A
C1093      H1098   1.083   1_545  S
C1094      C1095   1.400       .  A
C1094      H1099   1.083   1_545  S
C1095      C1096   1.410       .  A
C1096      H1100   1.083       .  S
C1101      C1102   1.395       .  A
C1101      C1106   1.391       .  A
C1101      H1107   1.083       .  S
C1102      C1103   1.401       .  A
C1103      C1104   1.391       .  A
C1103      H1108   1.083       .  S
C1104      C1105   1.400       .  A
C1104      H1109   1.083       .  S
C1105      C1106   1.410       .  A
C1106      H1110   1.083       .  S
C1111      C1112   1.231       .  T
C1113      C1114   1.231       .  T
C1115      C1116   1.230       .  T
C1117      C1118   1.410       .  A
C1117      C1122   1.392       .  A
C1117      H1123   1.083       .  S
C1118      C1119   1.400       .  A
C1119      C1120   1.391       .  A
C1119      H1124   1.083   1_545  S
C1120      C1121   1.401       .  A
C1120      H1125   1.083   1_545  S
C1121      C1122   1.395       .  A
C1122      H1126   1.083       .  S
C1127      C1128   1.401       .  A
C1127      C1132   1.391       .  A
C1127      H1133   1.083   1_565  S
C1128      C1129   1.395       .  A
C1129      C1130   1.392       .  A
C1129      H1134   1.083       .  S
C1130      C1131   1.410       .  A
C1130      H1135   1.083       .  S
C1131      C1132   1.400       .  A
C1132      H1136   1.083   1_565  S
C1137      C1138   1.232       .  T
C1139      C1140   1.231       .  T
C1141      C1142   1.231       .  T
C1143      C1144   1.230       .  T
C1145      C1146   1.410       .  A
C1145      C1150   1.391       .  A
C1145      H1151   1.083       .  S
C1146      C1147   1.400       .  A
C1147      C1148   1.391       .  A
C1147      H1152   1.083       .  S
C1148      C1149   1.402       .  A
C1148      H1153   1.083       .  S
C1149      C1150   1.395       .  A
C1150      H1154   1.083       .  S
C1155      C1156   1.400       .  A
C1155      C1160   1.391       .  A
C1155      H1161   1.083       .  S
C1156      C1157   1.410       .  A
C1157      C1158   1.391       .  A
C1157      H1162   1.083       .  S
C1158      C1159   1.395       .  A
C1158      H1163   1.083       .  S
C1159      C1160   1.401       .  A
C1160      H1164   1.083       .  S
C1165      C1166   1.402       .  A
C1165      C1170   1.391       .  A
C1165      H1171   1.083       .  S
C1166      C1167   1.395       .  A
C1167      C1168   1.391       .  A
C1167      H1172   1.083       .  S
C1168      C1169   1.410       .  A
C1168      H1173   1.083       .  S
C1169      C1170   1.400       .  A
C1170      H1174   1.083       .  S
C1175      C1176   1.395       .  A
C1175      C1180   1.392       .  A
C1175      H1181   1.083       .  S
C1176      C1177   1.402       .  A
C1177      C1178   1.391       .  A
C1177      H1182   1.083       .  S
C1178      C1179   1.400       .  A
C1178      H1183   1.083       .  S
C1179      C1180   1.410       .  A
C1180      H1184   1.083       .  S
C1185      C1186   1.395       .  A
C1185      C1190   1.391       .  A
C1185      H1191   1.083       .  S
C1186      C1187   1.402       .  A
C1187      C1188   1.391       .  A
C1187      H1192   1.083       .  S
C1188      C1189   1.400       .  A
C1188      H1193   1.083       .  S
C1189      C1190   1.410       .  A
C1190      H1194   1.083       .  S
C1195      C1196   1.402       .  A
C1195      C1200   1.391       .  A
C1195      H1201   1.083       .  S
C1196      C1197   1.395       .  A
C1197      C1198   1.392       .  A
C1197      H1202   1.083       .  S
C1198      C1199   1.410       .  A
C1198      H1203   1.083       .  S
C1199      C1200   1.400       .  A
C1200      H1204   1.083       .  S
C1205      C1206   1.232       .  T
C1207      C1208   1.231       .  T
C1209      C1210   1.231       .  T
C1211      C1212   1.410       .  A
C1211      C1216   1.392       .  A
C1211      H1217   1.083       .  S
C1212      C1213   1.400       .  A
C1213      C1214   1.391       .  A
C1213      H1218   1.083   1_554  S
C1214      C1215   1.401       .  A
C1214      H1219   1.083   1_554  S
C1215      C1216   1.395       .  A
C1216      H1220   1.083       .  S
C1221      C1222   1.400       .  A
C1221      C1226   1.391       .  A
C1221      H1227   1.083   1_556  S
C1222      C1223   1.410       .  A
C1223      C1224   1.392       .  A
C1223      H1228   1.083       .  S
C1224      C1225   1.395       .  A
C1224      H1229   1.083       .  S
C1225      C1226   1.402       .  A
C1226      H1230   1.083   1_556  S
C1231      C1232   1.400       .  A
C1231      C1236   1.391       .  A
C1231      H1237   1.083       .  S
C1232      C1233   1.410       .  A
C1233      C1234   1.391       .  A
C1233      H1238   1.083       .  S
C1234      C1235   1.394       .  A
C1234      H1239   1.083       .  S
C1235      C1236   1.402       .  A
C1236      H1240   1.083       .  S
C1241      C1242   1.395       .  A
C1241      C1246   1.391       .  A
C1241      H1247   1.083       .  S
C1242      C1243   1.402       .  A
C1243      C1244   1.392       .  A
C1243      H1248   1.083       .  S
C1244      C1245   1.400       .  A
C1244      H1249   1.083       .  S
C1245      C1246   1.410       .  A
C1246      H1250   1.083       .  S
C1251      C1252   1.410       .  A
C1251      C1256   1.391       .  A
C1251      H1257   1.083       .  S
C1252      C1253   1.400       .  A
C1253      C1254   1.391       .  A
C1253      H1258   1.083       .  S
C1254      C1255   1.402       .  A
C1254      H1259   1.083       .  S
C1255      C1256   1.395       .  A
C1256      H1260   1.083       .  S
C1261      C1262   1.402       .  A
C1261      C1266   1.392       .  A
C1261      H1267   1.083       .  S
C1262      C1263   1.395       .  A
C1263      C1264   1.392       .  A
C1263      H1268   1.083       .  S
C1264      C1265   1.410       .  A
C1264      H1269   1.083       .  S
C1265      C1266   1.400       .  A
C1266      H1270   1.083       .  S
C1271      C1272   1.400       .  A
C1271      C1276   1.391       .  A
C1271      H1277   1.083       .  S
C1272      C1273   1.410       .  A
C1273      C1274   1.391       .  A
C1273      H1278   1.083       .  S
C1274      C1275   1.395       .  A
C1274      H1279   1.083       .  S
C1275      C1276   1.402       .  A
C1276      H1280   1.083       .  S
C1281      C1282   1.395       .  A
C1281      C1286   1.391       .  A
C1281      H1287   1.083       .  S
C1282      C1283   1.402       .  A
C1283      C1284   1.391       .  A
C1283      H1288   1.083       .  S
C1284      C1285   1.400       .  A
C1284      H1289   1.083       .  S
C1285      C1286   1.410       .  A
C1286      H1290   1.083       .  S
C1291      C1292   1.232       .  T
C1293      C1294   1.232       .  T
C1295      C1296   1.231       .  T
C1297      C1298   1.395       .  A
C1297      C1302   1.392       .  A
C1297      H1303   1.083       .  S
C1298      C1299   1.402       .  A
C1299      C1300   1.391       .  A
C1299      H1304   1.083   1_655  S
C1300      C1301   1.400       .  A
C1300      H1305   1.083   1_655  S
C1301      C1302   1.410       .  A
C1302      H1306   1.083       .  S
C1307      C1308   1.410       .  A
C1307      C1312   1.392       .  A
C1307      H1313   1.083       .  S
C1308      C1309   1.400       .  A
C1309      C1310   1.391       .  A
C1309      H1314   1.083       .  S
C1310      C1311   1.401       .  A
C1310      H1315   1.083       .  S
C1311      C1312   1.395       .  A
C1312      H1316   1.083       .  S
C1317      C1318   1.410       .  A
C1317      C1322   1.393       .  A
C1317      H1323   1.083       .  S
C1318      C1319   1.400       .  A
C1319      C1320   1.391       .  A
C1319      H1324   1.083       .  S
C1320      C1321   1.402       .  A
C1320      H1325   1.083       .  S
C1321      C1322   1.395       .  A
C1322      H1326   1.083       .  S
C1327      C1328   1.231       .  T
C1329      C1330   1.231       .  T
C1331      C1332   1.410       .  A
C1331      C1336   1.392       .  A
C1331      H1337   1.083       .  S
C1332      C1333   1.400       .  A
C1333      C1334   1.392       .  A
C1333      H1338   1.083       .  S
C1334      C1335   1.402       .  A
C1334      H1339   1.083   1_655  S
C1335      C1336   1.395       .  A
C1336      H1340   1.083       .  S
C1341      C1342   1.400       .  A
C1341      C1346   1.392       .  A
C1341      H1347   1.083       .  S
C1342      C1343   1.410       .  A
C1343      C1344   1.392       .  A
C1343      H1348   1.083       .  S
C1344      C1345   1.395       .  A
C1344      H1349   1.083       .  S
C1345      C1346   1.402       .  A
C1346      H1350   1.083   1_655  S
C1351      C1352   1.400       .  A
C1351      C1356   1.391       .  A
C1351      H1357   1.083       .  S
C1352      C1353   1.410       .  A
C1353      C1354   1.391       .  A
C1353      H1358   1.083       .  S
C1354      C1355   1.395       .  A
C1354      H1359   1.083       .  S
C1355      C1356   1.402       .  A
C1356      H1360   1.083       .  S
C1361      C1362   1.395       .  A
C1361      C1366   1.392       .  A
C1361      H1367   1.083       .  S
C1362      C1363   1.402       .  A
C1363      C1364   1.391       .  A
C1363      H1368   1.083       .  S
C1364      C1365   1.400       .  A
C1364      H1369   1.083       .  S
C1365      C1366   1.410       .  A
C1366      H1370   1.083       .  S
C1371      C1372   1.402       .  A
C1371      C1376   1.392       .  A
C1371      H1377   1.083       .  S
C1372      C1373   1.395       .  A
C1373      C1374   1.391       .  A
C1373      H1378   1.083       .  S
C1374      C1375   1.410       .  A
C1374      H1379   1.083       .  S
C1375      C1376   1.400       .  A
C1376      H1380   1.083       .  S
C1381      C1382   1.395       .  A
C1381      C1386   1.392       .  A
C1381      H1387   1.083       .  S
C1382      C1383   1.402       .  A
C1383      C1384   1.391       .  A
C1383      H1388   1.083       .  S
C1384      C1385   1.400       .  A
C1384      H1389   1.083       .  S
C1385      C1386   1.410       .  A
C1386      H1390   1.083       .  S
C1391      C1392   1.402       .  A
C1391      C1396   1.392       .  A
C1391      H1397   1.083       .  S
C1392      C1393   1.395       .  A
C1393      C1394   1.392       .  A
C1393      H1398   1.083       .  S
C1394      C1395   1.410       .  A
C1394      H1399   1.083       .  S
C1395      C1396   1.400       .  A
C1396      H1400   1.083       .  S
C1401      C1402   1.395       .  A
C1401      C1406   1.391       .  A
C1401      H1407   1.083       .  S
C1402      C1403   1.401       .  A
C1403      C1404   1.391       .  A
C1403      H1408   1.083       .  S
C1404      C1405   1.400       .  A
C1404      H1409   1.083       .  S
C1405      C1406   1.410       .  A
C1406      H1410   1.083       .  S
C1411      C1412   1.231       .  T
C1413      C1414   1.231       .  T
C1415      C1416   1.230       .  T
C1417      C1418   1.410       .  A
C1417      C1422   1.391       .  A
C1417      H1423   1.083       .  S
C1418      C1419   1.400       .  A
C1419      C1420   1.391       .  A
C1419      H1424   1.083       .  S
C1420      C1421   1.402       .  A
C1420      H1425   1.083   1_556  S
C1421      C1422   1.395       .  A
C1422      H1426   1.083       .  S
C1427      C1428   1.410       .  A
C1427      C1432   1.392       .  A
C1427      H1433   1.083       .  S
C1428      C1429   1.401       .  A
C1429      C1430   1.392       .  A
C1429      H1434   1.083       .  S
C1430      C1431   1.402       .  A
C1430      H1435   1.083       .  S
C1431      C1432   1.395       .  A
C1432      H1436   1.083       .  S
C1437      C1438   1.410       .  A
C1437      C1442   1.391       .  A
C1437      H1443   1.083       .  S
C1438      C1439   1.400       .  A
C1439      C1440   1.391       .  A
C1439      H1444   1.083       .  S
C1440      C1441   1.402       .  A
C1440      H1445   1.083   1_556  S
C1441      C1442   1.395       .  A
C1442      H1446   1.083       .  S
C1447      C1448   1.401       .  A
C1447      C1452   1.391       .  A
C1447      H1453   1.083       .  S
C1448      C1449   1.395       .  A
C1449      C1450   1.392       .  A
C1449      H1454   1.083       .  S
C1450      C1451   1.410       .  A
C1450      H1455   1.083       .  S
C1451      C1452   1.400       .  A
C1452      H1456   1.083       .  S
C1457      C1458   1.401       .  A
C1457      C1462   1.391       .  A
C1457      H1463   1.083       .  S
C1458      C1459   1.395       .  A
C1459      C1460   1.391       .  A
C1459      H1464   1.083       .  S
C1460      C1461   1.410       .  A
C1460      H1465   1.083       .  S
C1461      C1462   1.400       .  A
C1462      H1466   1.083       .  S
C1467      C1468   1.395       .  A
C1467      C1472   1.392       .  A
C1467      H1473   1.083       .  S
C1468      C1469   1.401       .  A
C1469      C1470   1.391       .  A
C1469      H1474   1.083       .  S
C1470      C1471   1.400       .  A
C1470      H1475   1.083       .  S
C1471      C1472   1.410       .  A
C1472      H1476   1.083       .  S
C1477      C1478   1.231       .  T
C1479      C1480   1.230       .  T
C1481      C1482   1.231       .  T
C1483      C1484   1.400       .  A
C1483      C1488   1.391       .  A
C1483      H1489   1.083       .  S
C1484      C1485   1.410       .  A
C1485      C1486   1.392       .  A
C1485      H1490   1.083       .  S
C1486      C1487   1.395       .  A
C1486      H1491   1.083       .  S
C1487      C1488   1.402       .  A
C1488      H1492   1.083       .  S
C1493      C1494   1.400       .  A
C1493      C1498   1.391       .  A
C1493      H1499   1.083       .  S
C1494      C1495   1.409       .  A
C1495      C1496   1.392       .  A
C1495      H1500   1.083       .  S
C1496      C1497   1.395       .  A
C1496      H1501   1.083       .  S
C1497      C1498   1.402       .  A
C1498      H1502   1.083       .  S
C1503      C1504   1.410       .  A
C1503      C1508   1.392       .  A
C1503      H1509   1.083       .  S
C1504      C1505   1.400       .  A
C1505      C1506   1.391       .  A
C1505      H1510   1.083       .  S
C1506      C1507   1.402       .  A
C1506      H1511   1.083       .  S
C1507      C1508   1.395       .  A
C1508      H1512   1.083       .  S
C1513      C1514   1.402       .  A
C1513      C1518   1.392       .  A
C1513      H1519   1.083       .  S
C1514      C1515   1.395       .  A
C1515      C1516   1.392       .  A
C1515      H1520   1.083       .  S
C1516      C1517   1.410       .  A
C1516      H1521   1.083       .  S
C1517      C1518   1.400       .  A
C1518      H1522   1.083       .  S
C1523      C1524   1.402       .  A
C1523      C1528   1.391       .  A
C1523      H1529   1.083       .  S
C1524      C1525   1.395       .  A
C1525      C1526   1.392       .  A
C1525      H1530   1.083       .  S
C1526      C1527   1.410       .  A
C1526      H1531   1.083       .  S
C1527      C1528   1.400       .  A
C1528      H1532   1.083       .  S
C1533      C1534   1.401       .  A
C1533      C1538   1.391       .  A
C1533      H1539   1.083       .  S
C1534      C1535   1.395       .  A
C1535      C1536   1.391       .  A
C1535      H1540   1.083       .  S
C1536      C1537   1.410       .  A
C1536      H1541   1.083       .  S
C1537      C1538   1.400       .  A
C1538      H1542   1.083       .  S
C1543      C1544   1.410       .  A
C1543      C1548   1.392       .  A
C1543      H1549   1.083       .  S
C1544      C1545   1.400       .  A
C1545      C1546   1.392       .  A
C1545      H1550   1.083       .  S
C1546      C1547   1.402       .  A
C1546      H1551   1.083       .  S
C1547      C1548   1.395       .  A
C1548      H1552   1.083       .  S
C1553      C1554   1.232       .  T
C1555      C1556   1.231       .  T
C1557      C1558   1.410       .  A
C1557      C1562   1.391       .  A
C1557      H1563   1.083       .  S
C1558      C1559   1.400       .  A
C1559      C1560   1.391       .  A
C1559      H1564   1.083   1_655  S
C1560      C1561   1.401       .  A
C1560      H1565   1.083   1_654  S
C1561      C1562   1.395       .  A
C1562      H1566   1.083       .  S
C1567      C1568   1.410       .  A
C1567      C1572   1.392       .  A
C1567      H1573   1.083       .  S
C1568      C1569   1.400       .  A
C1569      C1570   1.391       .  A
C1569      H1574   1.083       .  S
C1570      C1571   1.402       .  A
C1570      H1575   1.083       .  S
C1571      C1572   1.395       .  A
C1572      H1576   1.083       .  S
C1577      C1578   1.400       .  A
C1577      C1582   1.392       .  A
C1577      H1583   1.083       .  S
C1578      C1579   1.410       .  A
C1579      C1580   1.392       .  A
C1579      H1584   1.083       .  S
C1580      C1581   1.395       .  A
C1580      H1585   1.083       .  S
C1581      C1582   1.402       .  A
C1582      H1586   1.083       .  S
C1587      C1588   1.232       .  T
C1589      C1590   1.232       .  T
C1591      C1592   1.231       .  T
C1593      C1594   1.232       .  T
C1595      C1596   1.410       .  A
C1595      C1600   1.391       .  A
C1595      H1601   1.083       .  S
C1596      C1597   1.400       .  A
C1597      C1598   1.391       .  A
C1597      H1602   1.083       .  S
C1598      C1599   1.402       .  A
C1598      H1603   1.083       .  S
C1599      C1600   1.395       .  A
C1600      H1604   1.083       .  S
C1605      C1606   1.400       .  A
C1605      C1610   1.392       .  A
C1605      H1611   1.083       .  S
C1606      C1607   1.410       .  A
C1607      C1608   1.392       .  A
C1607      H1612   1.083       .  S
C1608      C1609   1.395       .  A
C1608      H1613   1.083       .  S
C1609      C1610   1.402       .  A
C1610      H1614   1.083       .  S
C1615      C1616   1.400       .  A
C1615      C1620   1.392       .  A
C1615      H1621   1.083   1_554  S
C1616      C1617   1.410       .  A
C1617      C1618   1.392       .  A
C1617      H1622   1.083       .  S
C1618      C1619   1.395       .  A
C1618      H1623   1.083       .  S
C1619      C1620   1.402       .  A
C1620      H1624   1.083   1_564  S
C1625      C1626   1.231       .  T
C1627      C1628   1.231       .  T
C1629      C1630   1.232       .  T
C1631      C1632   1.232       .  T
C1633      C1634   1.400       .  A
C1633      C1638   1.391       .  A
C1633      H1639   1.083       .  S
C1634      C1635   1.410       .  A
C1635      C1636   1.392       .  A
C1635      H1640   1.083       .  S
C1636      C1637   1.395       .  A
C1636      H1641   1.083       .  S
C1637      C1638   1.402       .  A
C1638      H1642   1.083       .  S
C1643      C1644   1.410       .  A
C1643      C1648   1.392       .  A
C1643      H1649   1.083       .  S
C1644      C1645   1.400       .  A
C1645      C1646   1.392       .  A
C1645      H1650   1.083   1_455  S
C1646      C1647   1.402       .  A
C1646      H1651   1.083   1_455  S
C1647      C1648   1.395       .  A
C1648      H1652   1.083       .  S
C1653      C1654   1.400       .  A
C1653      C1658   1.392       .  A
C1653      H1659   1.083       .  S
C1654      C1655   1.410       .  A
C1655      C1656   1.392       .  A
C1655      H1660   1.083       .  S
C1656      C1657   1.395       .  A
C1656      H1661   1.083       .  S
C1657      C1658   1.402       .  A
C1658      H1662   1.083       .  S
C1663      C1664   1.395       .  A
C1663      C1668   1.392       .  A
C1663      H1669   1.083       .  S
C1664      C1665   1.402       .  A
C1665      C1666   1.392       .  A
C1665      H1670   1.083   1_565  S
C1666      C1667   1.400       .  A
C1666      H1671   1.083       .  S
C1667      C1668   1.410       .  A
C1668      H1672   1.083       .  S
C1673      C1674   1.395       .  A
C1673      C1678   1.392       .  A
C1673      H1679   1.083       .  S
C1674      C1675   1.401       .  A
C1675      C1676   1.391       .  A
C1675      H1680   1.083   1_545  S
C1676      C1677   1.400       .  A
C1676      H1681   1.083       .  S
C1677      C1678   1.410       .  A
C1678      H1682   1.083       .  S
C1683      C1684   1.402       .  A
C1683      C1688   1.391       .  A
C1683      H1689   1.083   1_465  S
C1684      C1685   1.395       .  A
C1685      C1686   1.392       .  A
C1685      H1690   1.083       .  S
C1686      C1687   1.410       .  A
C1686      H1691   1.083       .  S
C1687      C1688   1.400       .  A
C1688      H1692   1.083   1_565  S
C1693      C1694   1.401       .  A
C1693      C1698   1.391       .  A
C1693      H1699   1.083   1_455  S
C1694      C1695   1.395       .  A
C1695      C1696   1.391       .  A
C1695      H1700   1.083       .  S
C1696      C1697   1.410       .  A
C1696      H1701   1.083       .  S
C1697      C1698   1.400       .  A
C1698      H1702   1.083   1_455  S
C1703      C1704   1.395       .  A
C1703      C1708   1.391       .  A
C1703      H1709   1.083       .  S
C1704      C1705   1.402       .  A
C1705      C1706   1.391       .  A
C1705      H1710   1.083   1_655  S
C1706      C1707   1.400       .  A
C1706      H1711   1.083   1_655  S
C1707      C1708   1.410       .  A
C1708      H1712   1.083       .  S
C1713      C1714   1.231       .  T
C1715      C1716   1.231       .  T
C1717      C1718   1.231       .  T
C1719      C1720   1.230       .  T
C1721      C1722   1.410       .  A
C1721      C1726   1.392       .  A
C1721      H1727   1.083       .  S
C1722      C1723   1.400       .  A
C1723      C1724   1.391       .  A
C1723      H1728   1.083       .  S
C1724      C1725   1.402       .  A
C1724      H1729   1.083       .  S
C1725      C1726   1.395       .  A
C1726      H1730   1.083       .  S
C1731      C1732   1.400       .  A
C1731      C1736   1.391       .  A
C1731      H1737   1.083       .  S
C1732      C1733   1.410       .  A
C1733      C1734   1.392       .  A
C1733      H1738   1.083       .  S
C1734      C1735   1.395       .  A
C1734      H1739   1.083       .  S
C1735      C1736   1.401       .  A
C1736      H1740   1.083       .  S
C1741      C1742   1.410       .  A
C1741      C1746   1.392       .  A
C1741      H1747   1.083       .  S
C1742      C1743   1.400       .  A
C1743      C1744   1.391       .  A
C1743      H1748   1.083   1_545  S
C1744      C1745   1.402       .  A
C1744      H1749   1.083   1_645  S
C1745      C1746   1.395       .  A
C1746      H1750   1.083       .  S
C1751      C1752   1.232       .  T
C1753      C1754   1.231       .  T
C1755      C1756   1.232       .  T
C1757      C1758   1.232       .  T
C1759      C1760   1.395       .  A
C1759      C1764   1.392       .  A
C1759      H1765   1.083       .  S
C1760      C1761   1.402       .  A
C1761      C1762   1.392       .  A
C1761      H1766   1.083       .  S
C1762      C1763   1.400       .  A
C1762      H1767   1.083       .  S
C1763      C1764   1.410       .  A
C1764      H1768   1.083       .  S
C1769      C1770   1.410       .  A
C1769      C1774   1.391       .  A
C1769      H1775   1.083       .  S
C1770      C1771   1.400       .  A
C1771      C1772   1.391       .  A
C1771      H1776   1.083   1_455  S
C1772      C1773   1.402       .  A
C1772      H1777   1.083   1_456  S
C1773      C1774   1.395       .  A
C1774      H1778   1.083       .  S
C1779      C1780   1.400       .  A
C1779      C1784   1.392       .  A
C1779      H1785   1.083       .  S
C1780      C1781   1.410       .  A
C1781      C1782   1.392       .  A
C1781      H1786   1.083       .  S
C1782      C1783   1.395       .  A
C1782      H1787   1.083       .  S
C1783      C1784   1.402       .  A
C1784      H1788   1.083       .  S
C1789      C1790   1.395       .  A
C1789      C1794   1.391       .  A
C1789      H1795   1.083       .  S
C1790      C1791   1.401       .  A
C1791      C1792   1.391       .  A
C1791      H1796   1.083   1_544  S
C1792      C1793   1.400       .  A
C1792      H1797   1.083   1_554  S
C1793      C1794   1.410       .  A
C1794      H1798   1.083       .  S
C1799      C1800   1.410       .  A
C1799      C1804   1.392       .  A
C1799      H1805   1.083       .  S
C1800      C1801   1.400       .  A
C1801      C1802   1.391       .  A
C1801      H1806   1.083   1_545  S
C1802      C1803   1.401       .  A
C1802      H1807   1.083   1_445  S
C1803      C1804   1.395       .  A
C1804      H1808   1.083       .  S
C1809      C1810   1.395       .  A
C1809      C1814   1.391       .  A
C1809      H1815   1.083       .  S
C1810      C1811   1.402       .  A
C1811      C1812   1.392       .  A
C1811      H1816   1.083   1_454  S
C1812      C1813   1.400       .  A
C1812      H1817   1.083   1_455  S
C1813      C1814   1.410       .  A
C1814      H1818   1.083       .  S
C1819      C1820   1.402       .  A
C1819      C1824   1.391       .  A
C1819      H1825   1.083   1_566  S
C1820      C1821   1.395       .  A
C1821      C1822   1.392       .  A
C1821      H1826   1.083       .  S
C1822      C1823   1.410       .  A
C1822      H1827   1.083       .  S
C1823      C1824   1.400       .  A
C1824      H1828   1.083   1_556  S
C1829      C1830   1.402       .  A
C1829      C1834   1.391       .  A
C1829      H1835   1.083   1_665  S
C1830      C1831   1.395       .  A
C1831      C1832   1.392       .  A
C1831      H1836   1.083       .  S
C1832      C1833   1.410       .  A
C1832      H1837   1.083       .  S
C1833      C1834   1.400       .  A
C1834      H1838   1.083   1_565  S
C1839      C1840   1.410       .  A
C1839      C1844   1.391       .  A
C1839      H1845   1.083       .  S
C1840      C1841   1.400       .  A
C1841      C1842   1.392       .  A
C1841      H1846   1.083   1_655  S
C1842      C1843   1.402       .  A
C1842      H1847   1.083   1_656  S
C1843      C1844   1.395       .  A
C1844      H1848   1.083       .  S
