geometry optimzed in LAMMPS
_audit_creation_date              2020-11-30 
_audit_creation_method            'lammps2cif' 
_symmetry_space_group_name_H-M    'P1' 
_symmetry_Int_Tables_number       1 
_symmetry_cell_setting            triclinic 
loop_ 
_symmetry_equiv_pos_as_xyz 
  x,y,z 
_cell_length_a                    69.62071333 
_cell_length_b                    69.66253696164218 
_cell_length_c                    103.90558270750293 
_cell_angle_alpha                 89.97630961523474 
_cell_angle_beta                  90.02285918177672 
_cell_angle_gamma                 120.47491495088023 
loop_ 
_atom_site_label 
_atom_site_type_symbol 
_atom_site_fract_x 
_atom_site_fract_y 
_atom_site_fract_z 
_atom_site_charge 
N1          N  0.34065000  0.28292569  0.67579974    -0.26900
N2          N  0.36183509  0.28925762  0.67389227    -0.34700
C3          C  0.36735705  0.27719266  0.68147878     0.01500
C4          C  0.34883714  0.26240185  0.68856417     0.07500
C5          C  0.33215005  0.26651772  0.68467792    -0.05600
H6          H  0.38377993  0.27913151  0.68180044     0.08200
H7          H  0.31524421  0.25862147  0.68825430     0.09400
Cu8        Cu  0.38314625  0.31433336  0.66141052     0.44200
Cu9        Cu  0.32456540  0.29722688  0.66622375     0.42000
Cu10       Cu  0.36063492  0.34285357  0.64466231     0.43900
N11         N  0.40174645  0.34025093  0.64873442    -0.34300
N12         N  0.39332899  0.35099784  0.64270744    -0.28500
C13         C  0.40890915  0.36649982  0.63497153    -0.04600
C14         C  0.42818633  0.36548263  0.63611786     0.07600
C15         C  0.42301747  0.34862195  0.64497745     0.01400
H16         H  0.40610763  0.37718027  0.62864513     0.09000
H17         H  0.43379391  0.34278151  0.64846077     0.08100
N18         N  0.32678037  0.32985540  0.64627742    -0.35700
N19         N  0.31342362  0.31349559  0.65410138    -0.27900
C20         C  0.29227452  0.30848485  0.65193748    -0.03100
C21         C  0.29247360  0.32221710  0.64219881     0.05500
C22         C  0.31462541  0.33550341  0.63889085     0.03600
H23         H  0.27778791  0.29511641  0.65663464     0.08700
H24         H  0.32143226  0.34805914  0.63142358     0.07500
N25         N  0.93101631  0.28240781  0.67249723    -0.26900
N26         N  0.91645940  0.28903433  0.67079357    -0.34700
C27         C  0.89950102  0.27811150  0.67910118     0.01500
C28         C  0.90342563  0.26380571  0.68647041     0.07500
C29         C  0.92368623  0.26710653  0.68195871    -0.05600
H30         H  0.88525265  0.28036174  0.67960812     0.08200
H31         H  0.93279761  0.25934863  0.68535405     0.09400
Cu32       Cu  0.92013412  0.31278249  0.65738989     0.44200
Cu33       Cu  0.96015370  0.29422292  0.66180989     0.42000
Cu34       Cu  0.96856991  0.33488742  0.63721196     0.43900
N35         N  0.92748983  0.33692425  0.64347046    -0.34300
N36         N  0.94551575  0.34534701  0.63618965    -0.28500
C37         C  0.94542445  0.36036315  0.62808096    -0.04600
C38         C  0.92625915  0.36127582  0.63025054     0.07600
C39         C  0.91534572  0.34621914  0.64013142     0.01400
H40         H  0.95803604  0.36941635  0.62085756     0.09000
H41         H  0.89974008  0.34226721  0.64460773     0.08100
N42         N  0.98901540  0.32149640  0.63965914    -0.35700
N43         N  0.98654048  0.30722140  0.64881567    -0.27900
C44         C  0.00270948  0.30208960  0.64760547    -0.03100
C45         C  0.01568147  0.31338655  0.63703448     0.05500
C46         C  0.00653452  0.32556512  0.63229873     0.03600
H47         H  0.00445748  0.29048137  0.65371015     0.08700
H48         H  0.01224545  0.33669067  0.62410697     0.07500
N49         N  0.18972288  0.32705912  0.61247052    -0.26900
N50         N  0.20311449  0.33626810  0.60251199    -0.34700
C51         C  0.22223570  0.33651342  0.60462437     0.01500
C52         C  0.22101533  0.32677486  0.61647709     0.07500
C53         C  0.20005926  0.32105907  0.62118445    -0.05600
H54         H  0.23616652  0.34404817  0.59806328     0.08200
H55         H  0.19284424  0.31327514  0.63031058     0.09400
Cu56       Cu  0.19612532  0.34926645  0.58645421     0.44200
Cu57       Cu  0.15849565  0.32416399  0.61377555     0.42000
Cu58       Cu  0.14461257  0.34746709  0.58572887     0.43900
N59         N  0.18761590  0.36331299  0.57157025    -0.34300
N60         N  0.16846619  0.36291143  0.57132492    -0.28500
C61         C  0.16807386  0.37423644  0.56091577    -0.04600
C62         C  0.18802805  0.38221937  0.55426130     0.07600
C63         C  0.19990842  0.37477151  0.56131642     0.01400
H64         H  0.15421174  0.37638593  0.55839239     0.09000
H65         H  0.21653538  0.37796051  0.55935188     0.08100
N66         N  0.12401236  0.33270918  0.60162466    -0.35700
N67         N  0.12890612  0.32455616  0.61179458    -0.27900
C68         C  0.11202040  0.31717240  0.62032197    -0.03100
C69         C  0.09563679  0.32080051  0.61528347     0.05500
C70         C  0.10395071  0.33065006  0.60340965     0.03600
H71         H  0.11178523  0.30964711  0.62946344     0.08700
H72         H  0.09628513  0.33653415  0.59663667     0.07500
N73         N  0.99495747  0.67863622  0.65212017    -0.26900
N74         N  0.99935705  0.66535229  0.64524702    -0.34700
C75         C  0.01708350  0.67776693  0.63771624     0.01500
C76         C  0.02427232  0.69995720  0.63996472     0.07500
C77         C  0.01000045  0.69992946  0.64923935    -0.05600
H78         H  0.02406656  0.67105831  0.63101667     0.08200
H79         H  0.01001418  0.71427619  0.65323361     0.09400
Cu80       Cu  0.98048955  0.63098137  0.64543551     0.44200
Cu81       Cu  0.96756310  0.66717214  0.66416506     0.42000
Cu82       Cu  0.93063765  0.60660756  0.66382731     0.43900
N83         N  0.95723360  0.59735540  0.64478032    -0.34300
N84         N  0.93850499  0.58820009  0.65142602    -0.28500
C85         C  0.92586508  0.56671775  0.64789117    -0.04600
C86         C  0.93726584  0.56208586  0.63856371     0.07600
C87         C  0.95710506  0.58204696  0.63686908     0.01400
H88         H  0.90930002  0.55554936  0.65154781     0.09000
H89         H  0.96993730  0.58571868  0.62982228     0.08100
N90         N  0.92491756  0.62854211  0.67439590    -0.35700
N91         N  0.93802901  0.65043446  0.67446052    -0.27900
C92         C  0.92876130  0.65941112  0.68188317    -0.03100
C93         C  0.90881407  0.64232418  0.68678879     0.05500
C94         C  0.90705502  0.62302897  0.68179605     0.03600
H95         H  0.93587645  0.67711751  0.68326703     0.08700
H96         H  0.89374366  0.60608986  0.68337482     0.07500
N97         N  0.34499170  0.06149857  0.67558744    -0.26900
N98         N  0.36641344  0.07626849  0.67400741    -0.34700
C99         C  0.37264162  0.09263227  0.68273355     0.01500
C100        C  0.35438028  0.08810036  0.69027189     0.07500
C101        C  0.33713618  0.06820717  0.68539371    -0.05600
H102        H  0.38917378  0.10713690  0.68320532     0.08200
H103        H  0.32001644  0.05929525  0.68864353     0.09400
Cu104      Cu  0.38708334  0.07444188  0.66020036     0.44200
Cu105      Cu  0.32675154  0.03303354  0.66420303     0.42000
Cu106      Cu  0.36072027  0.02609179  0.64078739     0.43900
N107        N  0.40428525  0.06692327  0.64666315    -0.34300
N108        N  0.39423104  0.04863497  0.63966039    -0.28500
C109        C  0.40908711  0.04780631  0.63182318    -0.04600
C110        C  0.42972325  0.06660183  0.63389114     0.07600
C111        C  0.42601249  0.07835590  0.64344169     0.01400
H112        H  0.40491998  0.03470224  0.62488010     0.09000
H113        H  0.43809193  0.09393156  0.64783714     0.08100
N114        N  0.32696516  0.00498289  0.64234267    -0.35700
N115        N  0.31399631  0.00681325  0.65092982    -0.27900
C116        C  0.29292050  0.98982159  0.64916945    -0.03100
C117        C  0.29285808  0.97706127  0.63886334     0.05500
C118        C  0.31475874  0.98718544  0.63488779     0.03600
H119        H  0.27871830  0.98712541  0.65482554     0.08700
H120        H  0.32152918  0.98182453  0.62725203     0.07500
N121        N  0.19320475  0.86283352  0.61185273    -0.26900
N122        N  0.20710473  0.86728487  0.60214289    -0.34700
C123        C  0.22609279  0.88639965  0.60457464     0.01500
C124        C  0.22417782  0.89457503  0.61637987     0.07500
C125        C  0.20302458  0.87907524  0.62071874    -0.05600
H126        H  0.24020685  0.89380481  0.59810800     0.08200
H127        H  0.19497205  0.87975185  0.62945659     0.09400
Cu128      Cu  0.20005271  0.84814208  0.58562791     0.44200
Cu129      Cu  0.16145117  0.83511639  0.61255432     0.37800
Cu130      Cu  0.14679705  0.79906176  0.58446565     0.43900
N131        N  0.18938679  0.82667257  0.57001130    -0.34300
N132        N  0.16960132  0.80839497  0.56961035    -0.28500
C133        C  0.16759838  0.79763556  0.55850361    -0.04600
C134        C  0.18707151  0.80981832  0.55148419     0.07600
C135        C  0.20053166  0.82812953  0.55914132     0.01400
H136        H  0.15300158  0.78209619  0.55575720     0.09000
H137        H  0.21740644  0.84126587  0.55717502     0.08100
N138        N  0.12690811  0.79193510  0.60060820    -0.35700
N139        N  0.13194465  0.80496026  0.61078370    -0.27900
C140        C  0.11581177  0.79470415  0.61966245    -0.03100
C141        C  0.09977184  0.77401683  0.61489248     0.05500
C142        C  0.10755457  0.77306265  0.60273774     0.03600
H143        H  0.11628114  0.80185913  0.62894759     0.08700
H144        H  0.10023704  0.75939898  0.59598044     0.07500
N145        N  0.56068036  0.12949472  0.56515612    -0.36200
N146        N  0.58009445  0.10954010  0.58161850    -0.56800
N147        N  0.54150247  0.09062746  0.59817578    -0.36200
N148        N  0.52309755  0.11231313  0.58249595    -0.56800
C149        C  0.58208363  0.14048002  0.56111803     0.27400
C150        C  0.55146453  0.14169477  0.56147879     0.27400
C151        C  0.55564695  0.08729942  0.60550243     0.27400
C152        C  0.52517314  0.08887094  0.60600677     0.27400
C153        C  0.59480509  0.11682036  0.57178764     0.36000
C154        C  0.58479167  0.09640530  0.58895791     0.36000
C155        C  0.51558080  0.12023213  0.57308514     0.36000
C156        C  0.50552887  0.09994038  0.59027015     0.36000
C157        C  0.58636536  0.15960724  0.55454076    -0.21500
C158        C  0.56701666  0.16035612  0.55476142    -0.21500
C159        C  0.54794630  0.08294013  0.61808395    -0.21500
C160        C  0.52868363  0.08389337  0.61839542    -0.21500
C161        C  0.60875835  0.10810579  0.57279655    -0.22500
C162        C  0.60237920  0.09512169  0.58366738    -0.22500
C163        C  0.49313372  0.11271692  0.57481886    -0.22500
C164        C  0.48676035  0.09987194  0.58572475    -0.22500
C165        C  0.59769458  0.13343221  0.56292459    -0.17900
C166        C  0.52929048  0.13622703  0.56387907    -0.17900
C167        C  0.50675106  0.09080161  0.60215443    -0.17900
C168        C  0.57499828  0.08756043  0.60105612    -0.17900
H169        H  0.60187586  0.17188096  0.55012163     0.15000
H170        H  0.56476166  0.17331328  0.55057904     0.15000
H171        H  0.55545728  0.07951744  0.62622190     0.15000
H172        H  0.51846002  0.08127477  0.62680148     0.15000
H173        H  0.62254524  0.11134570  0.56656746     0.13300
H174        H  0.61022845  0.08630152  0.58745606     0.13300
H175        H  0.48262258  0.11662356  0.56903986     0.13300
H176        H  0.47033118  0.09189619  0.59001789     0.13300
H177        H  0.55237825  0.11367654  0.56923225     0.26600
H178        H  0.54176750  0.09192882  0.58820480     0.26600
N179        N  0.48098039  0.28017926  0.52609818    -0.26900
N180        N  0.49247424  0.27583293  0.53452869    -0.34700
C181        C  0.50313476  0.29310051  0.54260887     0.01500
C182        C  0.49803991  0.30919249  0.53921291     0.07500
C183        C  0.48411570  0.30053714  0.52860156    -0.05600
H184        H  0.51368186  0.29369585  0.55042675     0.08200
H185        H  0.47624977  0.30813649  0.52336167     0.09400
Cu186      Cu  0.49237199  0.24633767  0.53540423     0.44200
Cu187      Cu  0.46095637  0.25745971  0.51208095     0.42000
Cu188      Cu  0.45961156  0.20394726  0.51254226     0.43900
N189        N  0.49027096  0.21585957  0.53519865    -0.34300
N190        N  0.47853522  0.20010746  0.52669823    -0.28500
C191        C  0.48147474  0.18271356  0.52892197    -0.04600
C192        C  0.49568159  0.18787374  0.53938326     0.07600
C193        C  0.50078376  0.20898017  0.54311748     0.01400
H194        H  0.47369021  0.16743682  0.52340874     0.09000
H195        H  0.51175211  0.21888301  0.55085241     0.08100
N196        N  0.44352249  0.21280440  0.49894646    -0.35700
N197        N  0.44384953  0.23195885  0.49878809    -0.27900
C198        C  0.43259696  0.23246061  0.48837769    -0.03100
C199        C  0.42497301  0.21278942  0.48154997     0.05500
C200        C  0.43212999  0.20070839  0.48863995     0.03600
H201        H  0.43080286  0.24649635  0.48574352     0.08700
H202        H  0.42941017  0.18432647  0.48650901     0.07500
N203        N  0.55865789  0.43150007  0.56613360    -0.36200
N204        N  0.52122079  0.41024113  0.58378570    -0.56800
N205        N  0.53978278  0.45025274  0.59941470    -0.36200
N206        N  0.57773435  0.47084269  0.58240759    -0.56800
C207        C  0.54950858  0.40990071  0.56265665     0.27400
C208        C  0.58011590  0.44216227  0.56213705     0.27400
C209        C  0.52396704  0.43525214  0.60740334     0.27400
C210        C  0.55437362  0.46766062  0.60671835     0.27400
C211        C  0.51356499  0.39504763  0.57420396     0.36000
C212        C  0.50362565  0.40496608  0.59150568     0.36000
C213        C  0.59224770  0.47864725  0.57249903     0.36000
C214        C  0.58225646  0.48865536  0.58973303     0.36000
C215        C  0.56513168  0.40691432  0.55607824    -0.21500
C216        C  0.58447721  0.42729264  0.55576389    -0.21500
C217        C  0.52837971  0.44330914  0.61990873    -0.21500
C218        C  0.54761216  0.46380104  0.61947591    -0.21500
C219        C  0.49097660  0.38018421  0.57574816    -0.22500
C220        C  0.48463567  0.38653678  0.58670076    -0.22500
C221        C  0.60581039  0.50157021  0.57339330    -0.22500
C222        C  0.59941800  0.50793845  0.58431137    -0.22500
C223        C  0.52726989  0.39297178  0.56499836    -0.17900
C224        C  0.59572503  0.46502183  0.56393951    -0.17900
C225        C  0.57312480  0.48725325  0.60205193    -0.17900
C226        C  0.50511531  0.41501515  0.60354749    -0.17900
H227        H  0.56291695  0.39159818  0.55204142     0.15000
H228        H  0.60002592  0.43070454  0.55142141     0.15000
H229        H  0.51872937  0.43527982  0.62845353     0.15000
H230        H  0.55567771  0.47462207  0.62762572     0.15000
H231        H  0.48033965  0.36593546  0.56978845     0.13300
H232        H  0.46809911  0.37814808  0.59086095     0.13300
H233        H  0.61948717  0.51241024  0.56712517     0.13300
H234        H  0.60715458  0.52469113  0.58812124     0.13300
H235        H  0.55022899  0.43886403  0.57009401     0.26600
H236        H  0.53932098  0.44964779  0.58941056     0.26600
N237        N  0.71352994  0.51912595  0.52921818    -0.26900
N238        N  0.71849976  0.50999139  0.53882896    -0.34700
C239        C  0.70085639  0.49974050  0.54673332     0.01500
C240        C  0.68379865  0.50238287  0.54184993     0.07500
C241        C  0.69255519  0.51491882  0.53074672    -0.05600
H242        H  0.70031585  0.49044735  0.55520367     0.08200
H243        H  0.68440471  0.52058942  0.52419554     0.09400
Cu244      Cu  0.74848249  0.51063329  0.54040406     0.44200
Cu245      Cu  0.73508528  0.53564472  0.51409146     0.42000
Cu246      Cu  0.78878619  0.53817911  0.51512402     0.43900
N247        N  0.77895578  0.51212787  0.53976598    -0.34300
N248        N  0.79389664  0.52230928  0.53060230    -0.28500
C249        C  0.81145630  0.51963575  0.53285451    -0.04600
C250        C  0.80733633  0.50701192  0.54398077     0.07600
C251        C  0.78652077  0.50267317  0.54805169     0.01400
H252        H  0.82602147  0.52640092  0.52675853     0.09000
H253        H  0.77714563  0.49279341  0.55624775     0.08100
N254        N  0.77861510  0.55097441  0.50021653    -0.35700
N255        N  0.75904674  0.54977094  0.49977582    -0.27900
C256        C  0.75764629  0.55926529  0.48881223    -0.03100
C257        C  0.77731483  0.56692423  0.48200839     0.05500
C258        C  0.79022548  0.56142127  0.48957320     0.03600
H259        H  0.74352420  0.56092616  0.48618463     0.08700
H260        H  0.80682219  0.56464593  0.48746939     0.07500
N261        N  0.78319713  0.28658190  0.52113561    -0.26900
N262        N  0.76768276  0.28076942  0.53004393    -0.34700
C263        C  0.77433669  0.29724695  0.53869371     0.01500
C264        C  0.79518740  0.31446087  0.53516428     0.07500
C265        C  0.80021573  0.30720095  0.52387863    -0.05600
H266        H  0.76471218  0.29653619  0.54703675     0.08200
H267        H  0.81548662  0.31587480  0.51838215     0.09400
Cu268      Cu  0.73893596  0.25006417  0.53078928     0.44200
Cu269      Cu  0.78039006  0.26464601  0.50651866     0.42000
Cu270      Cu  0.73081095  0.20803200  0.50788715     0.43900
N271        N  0.71228258  0.21793996  0.53128668    -0.34300
N272        N  0.70904527  0.20234952  0.52289033    -0.28500
C273        C  0.69003290  0.18348115  0.52585851    -0.04600
C274        C  0.68099913  0.18749316  0.53668847     0.07600
C275        C  0.69560613  0.20947428  0.53987165     0.01400
H276        H  0.68342190  0.16803399  0.52056733     0.09000
H277        H  0.69402073  0.21882086  0.54769678     0.08100
N278        N  0.75557838  0.21871855  0.49408253    -0.35700
N279        N  0.77357436  0.23882377  0.49366216    -0.27900
C280        C  0.78621127  0.23971016  0.48361470    -0.03100
C281        C  0.77560651  0.21929281  0.47738951     0.05500
C282        C  0.75618992  0.20646717  0.48426967     0.03600
H283        H  0.80174034  0.25433169  0.48088628     0.08700
H284        H  0.74348573  0.18937628  0.48236389     0.07500
N285        N  0.85823775  0.43467377  0.56745036    -0.36200
N286        N  0.88060817  0.47207529  0.58525822    -0.56800
N287        N  0.89910832  0.44919055  0.59935915    -0.36200
N288        N  0.87486281  0.41082797  0.58235249    -0.56800
C289        C  0.84793858  0.44623460  0.56463165     0.27400
C290        C  0.84519753  0.41372616  0.56287133     0.27400
C291        C  0.90385554  0.46608807  0.60760790     0.27400
C292        C  0.90092778  0.43348174  0.60601200     0.27400
C293        C  0.87318032  0.48118787  0.57652408     0.36000
C294        C  0.89464462  0.48879573  0.59313245     0.36000
C295        C  0.86584587  0.39662988  0.57231282     0.36000
C296        C  0.88708713  0.40411556  0.58904437     0.36000
C297        C  0.82835681  0.43259666  0.55798653    -0.21500
C298        C  0.82661764  0.41209134  0.55688896    -0.21500
C299        C  0.90923047  0.46127180  0.61956257    -0.21500
C300        C  0.90736454  0.44069406  0.61856149    -0.21500
C301        C  0.88268326  0.50382154  0.57877680    -0.22500
C302        C  0.89632360  0.50865696  0.58928691    -0.22500
C303        C  0.87250645  0.38095831  0.57258571    -0.22500
C304        C  0.88592920  0.38567847  0.58318339    -0.22500
C305        C  0.85604709  0.46894304  0.56752233    -0.17900
C306        C  0.84986729  0.39619668  0.56370994    -0.17900
C307        C  0.89772724  0.41318275  0.60094935    -0.17900
C308        C  0.90393348  0.48593895  0.60456445    -0.17900
H309        H  0.81646367  0.43692172  0.55435426     0.15000
H310        H  0.81310135  0.39758689  0.55228207     0.15000
H311        H  0.91390908  0.47146618  0.62814566     0.15000
H312        H  0.91033673  0.43200377  0.62623407     0.15000
H313        H  0.87958885  0.51549281  0.57362132     0.13300
H314        H  0.90584920  0.52481357  0.59382255     0.13300
H315        H  0.86780017  0.36725321  0.56599071     0.13300
H316        H  0.89363603  0.37634554  0.58633583     0.13300
H317        H  0.87418632  0.44125415  0.57123324     0.26600
H318        H  0.89674944  0.44923668  0.58948870     0.26600
N319        N  0.70885541  0.05830129  0.67233086    -0.26900
N320        N  0.70079226  0.07176858  0.67099884    -0.34700
C321        C  0.71223339  0.08960704  0.67862674     0.01500
C322        C  0.72833422  0.08749725  0.68533764     0.07500
C323        C  0.72567841  0.06734953  0.68097519    -0.05600
H324        H  0.70896723  0.10317156  0.67900956     0.08200
H325        H  0.73506701  0.05963556  0.68398349     0.09400
Cu326      Cu  0.67413745  0.06600566  0.65922005     0.44200
Cu327      Cu  0.69606166  0.02820902  0.66217858     0.42000
Cu328      Cu  0.64386539  0.01328059  0.64499226     0.43900
N329        N  0.64675751  0.05725156  0.64735828    -0.34300
N330        N  0.63510364  0.03717878  0.64230914    -0.28500
C331        C  0.61937520  0.03646370  0.63447401    -0.04600
C332        C  0.62109452  0.05720033  0.63455501     0.07600
C333        C  0.63873236  0.06994977  0.64286915     0.01400
H334        H  0.60847974  0.02226826  0.62857032     0.09000
H335        H  0.64565020  0.08735122  0.64522774     0.08100
N336        N  0.65906836  0.99444101  0.64499181    -0.35700
N337        N  0.67817699  0.99980138  0.65063440    -0.27900
C338        C  0.68378268  0.98457067  0.64728072    -0.03100
C339        C  0.66745426  0.96897569  0.63910594     0.05500
C340        C  0.65201652  0.97583579  0.63804678     0.03600
H341        H  0.69898467  0.98522670  0.65027161     0.08700
H342        H  0.63675155  0.96821368  0.63254643     0.07500
N343        N  0.71335103  0.65255239  0.66782618    -0.26900
N344        N  0.70318697  0.63057402  0.66816808    -0.34700
C345        C  0.71400376  0.62440132  0.67634495     0.01500
C346        C  0.73196496  0.64333529  0.68152378     0.07500
C347        C  0.73103470  0.66091654  0.67580638    -0.05600
H348        H  0.70872763  0.60725505  0.67856078     0.08200
H349        H  0.74228313  0.67853013  0.67725959     0.09400
Cu350      Cu  0.67477872  0.60930516  0.65792236     0.44200
Cu351      Cu  0.70203245  0.67015706  0.65699838     0.42000
Cu352      Cu  0.64924854  0.63470303  0.64066271     0.43900
N353        N  0.64695001  0.59131725  0.64652459    -0.34300
N354        N  0.63714302  0.60056577  0.64031420    -0.28500
C355        C  0.62080496  0.58503476  0.63288873    -0.04600
C356        C  0.62043258  0.56505864  0.63442888     0.07600
C357        C  0.63727629  0.56974129  0.64318122     0.01400
H358        H  0.61109388  0.58848467  0.62614890     0.09000
H359        H  0.64278161  0.55857296  0.64646096     0.08100
N360        N  0.66645941  0.66938385  0.63998957    -0.35700
N361        N  0.68573827  0.68244899  0.64574983    -0.27900
C362        C  0.69268017  0.70381006  0.64264749    -0.03100
C363        C  0.67715929  0.70422626  0.63440386     0.05500
C364        C  0.66070515  0.68201414  0.63308207     0.03600
H365        H  0.70825592  0.71793326  0.64581708     0.08700
H366        H  0.64560205  0.67531682  0.62744958     0.07500
N367        N  0.67741868  0.81054185  0.60554677    -0.26900
N368        N  0.67376355  0.79991751  0.59446666    -0.34700
C369        C  0.67507700  0.78150892  0.59629852     0.01500
C370        C  0.67967678  0.78023879  0.60918180     0.07500
C371        C  0.68112313  0.79909043  0.61472235    -0.05600
H372        H  0.67211724  0.76952000  0.58882182     0.08200
H373        H  0.68345494  0.80357818  0.62479903     0.09400
Cu374      Cu  0.66433483  0.80915504  0.57758159     0.44200
Cu375      Cu  0.67518720  0.83910180  0.60774778     0.42000
Cu376      Cu  0.65992111  0.85826075  0.57881858     0.43900
N377        N  0.65164839  0.81925608  0.56253927    -0.34300
N378        N  0.65039067  0.83754510  0.56292582    -0.28500
C379        C  0.64011342  0.83868907  0.55222576    -0.04600
C380        C  0.63434546  0.82005501  0.54477031     0.07600
C381        C  0.64203593  0.80817020  0.55160725     0.01400
H382        H  0.63602790  0.85149239  0.55036702     0.09000
H383        H  0.64033124  0.79235027  0.54900259     0.08100
N384        N  0.66596546  0.87374143  0.59656921    -0.35700
N385        N  0.67128579  0.86685079  0.60711719    -0.27900
C386        C  0.67299075  0.88019755  0.61696619    -0.03100
C387        C  0.66848635  0.89623928  0.61239446     0.05500
C388        C  0.66409408  0.89152123  0.59941526     0.03600
H389        H  0.67662655  0.87792211  0.62677743     0.08700
H390        H  0.65975808  0.90030436  0.59248973     0.07500
O391        O  0.84776404  0.66274684  0.72615024    -0.72500
O392        O  0.80568429  0.66098739  0.75324739    -0.73500
O393        O  0.84708554  0.66190111  0.75343899    -0.62100
O394        O  0.80636752  0.66195520  0.72583640    -0.70500
O395        O  0.78823183  0.62506498  0.72531048    -0.70100
O396        O  0.82847900  0.62503089  0.75296593    -0.61400
O397        O  0.78721625  0.62411277  0.75264727    -0.73900
O398        O  0.82917514  0.62582445  0.72575252    -0.72600
Cu399      Cu  0.82731951  0.66319875  0.73968311     1.04600
Cu400      Cu  0.80763216  0.62375590  0.73916966     1.04300
C401        C  0.84515214  0.64444467  0.72173190     0.93700
C402        C  0.78978438  0.64226406  0.75725705     0.92800
C403        C  0.84434597  0.64333451  0.75747164     0.84900
C404        C  0.79101714  0.64355124  0.72111297     0.91200
O405        O  0.84547890  0.18541858  0.75723601    -0.72500
O406        O  0.80608100  0.14517613  0.72867678    -0.73500
O407        O  0.84692950  0.18709611  0.72980423    -0.62100
O408        O  0.80452963  0.14360780  0.75616873    -0.70500
O409        O  0.78599022  0.16168540  0.75610388    -0.70100
O410        O  0.82777427  0.20454645  0.72974563    -0.61400
O411        O  0.78715633  0.16285419  0.72882615    -0.73900
O412        O  0.82666086  0.20320814  0.75696344    -0.72600
Cu413      Cu  0.82642235  0.16469461  0.74296819     1.04600
Cu414      Cu  0.80625060  0.18364840  0.74291303     1.04300
C415        C  0.84244117  0.20090482  0.76151146     0.93700
C416        C  0.79023443  0.14755112  0.72428651     0.92800
C417        C  0.84410519  0.20279081  0.72563958     0.84900
C418        C  0.78846872  0.14583486  0.76031878     0.91200
O419        O  0.32959555  0.18535876  0.73151398    -0.72500
O420        O  0.33096422  0.14446642  0.75872155    -0.73500
O421        O  0.32939762  0.18484278  0.75903111    -0.62100
O422        O  0.33113760  0.14491094  0.73149413    -0.70500
O423        O  0.36802656  0.16422064  0.73191305    -0.70100
O424        O  0.36628616  0.20477024  0.75875630    -0.61400
O425        O  0.36783708  0.16470806  0.75905293    -0.73900
O426        O  0.36648354  0.20450844  0.73154948    -0.72600
Cu427      Cu  0.32896697  0.16424167  0.74518524     1.04600
Cu428      Cu  0.36839252  0.18525024  0.74531248     1.04300
C429        C  0.34795749  0.20155737  0.72726998     0.93700
C430        C  0.34969460  0.14795039  0.76302440     0.92800
C431        C  0.34765098  0.20128209  0.76317835     0.84900
C432        C  0.34987614  0.14784037  0.72761986     0.91200
N433        N  0.34025821  0.28189139  0.81464391    -0.26900
N434        N  0.36180174  0.28943839  0.81607044    -0.34700
C435        C  0.36775947  0.27774369  0.80850335     0.01500
C436        C  0.34918499  0.26210557  0.80181487     0.07500
C437        C  0.33194392  0.26504613  0.80606722    -0.05600
H438        H  0.38455675  0.28072509  0.80785008     0.08200
H439        H  0.31483668  0.25623252  0.80278052     0.09400
Cu440      Cu  0.38329430  0.31644491  0.82718443     0.44200
Cu441      Cu  0.32385744  0.29625771  0.82367909     0.42000
Cu442      Cu  0.36144730  0.34817209  0.84041787     0.43900
N443        N  0.40229286  0.34465986  0.83805211    -0.34300
N444        N  0.39412635  0.35644298  0.84304838    -0.28500
C445        C  0.40979897  0.37273668  0.85039257    -0.04600
C446        C  0.42882570  0.37114836  0.84992888     0.07600
C447        C  0.42348809  0.35323260  0.84194153     0.01400
H448        H  0.40730035  0.38450651  0.85585512     0.09000
H449        H  0.43384868  0.34624372  0.83964691     0.08100
N450        N  0.32745584  0.33479202  0.83890762    -0.35700
N451        N  0.31350120  0.31573420  0.83325959    -0.27900
C452        C  0.29252270  0.31131609  0.83526458    -0.03100
C453        C  0.29328166  0.32848755  0.84255625     0.05500
C454        C  0.31588369  0.34302672  0.84456360     0.03600
H455        H  0.27797930  0.29629316  0.83194730     0.08700
H456        H  0.32366246  0.35820760  0.85013471     0.07500
N457        N  0.93082547  0.28375317  0.81305390    -0.26900
N458        N  0.91604113  0.29009503  0.81483531    -0.34700
C459        C  0.89817745  0.27768799  0.80736208     0.01500
C460        C  0.90168719  0.26271008  0.80045247     0.07500
C461        C  0.92265658  0.26711538  0.80433697    -0.05600
H462        H  0.88365014  0.27950288  0.80702308     0.08200
H463        H  0.93161532  0.25920232  0.80091287     0.09400
Cu464      Cu  0.92027194  0.31554432  0.82708271     0.44200
Cu465      Cu  0.96137391  0.29780763  0.82273658     0.42000
Cu466      Cu  0.96834363  0.33891080  0.84687499     0.43900
N467        N  0.92764787  0.34093269  0.84014926    -0.34300
N468        N  0.94542537  0.34942744  0.84761288    -0.28500
C469        C  0.94539759  0.36489279  0.85534084    -0.04600
C470        C  0.92656027  0.36620296  0.85267929     0.07600
C471        C  0.91578967  0.35078401  0.84289857     0.01400
H472        H  0.95785334  0.37399902  0.86263124     0.09000
H473        H  0.90043132  0.34682950  0.83811127     0.08100
N474        N  0.99061887  0.32796590  0.84399013    -0.35700
N475        N  0.98877328  0.31349386  0.83514503    -0.27900
C476        C  0.00665222  0.31084988  0.83601970    -0.03100
C477        C  0.02044443  0.32446266  0.84584145     0.05500
C478        C  0.00943474  0.33478923  0.85069840     0.03600
H479        H  0.00938793  0.29985562  0.82994415     0.08700
H480        H  0.01430959  0.34614518  0.85873830     0.07500
N481        N  0.19028662  0.33220313  0.87337174    -0.26900
N482        N  0.20451086  0.34243784  0.88287568    -0.34700
C483        C  0.22412069  0.34423663  0.87994704     0.01500
C484        C  0.22237271  0.33481580  0.86795938     0.07500
C485        C  0.20056699  0.32713512  0.86413099    -0.05600
H486        H  0.23854567  0.35185895  0.88618111     0.08200
H487        H  0.19294867  0.31914752  0.85511051     0.09400
Cu488      Cu  0.19768023  0.35462017  0.89930260     0.44200
Cu489      Cu  0.15828528  0.32753647  0.87296474     0.42000
Cu490      Cu  0.14455502  0.35091831  0.90025368     0.43900
N491        N  0.18737659  0.36614326  0.91458849    -0.34300
N492        N  0.16774233  0.36472613  0.91495390    -0.28500
C493        C  0.16624466  0.37434538  0.92581931    -0.04600
C494        C  0.18596941  0.38229029  0.93263115     0.07600
C495        C  0.19891884  0.37664699  0.92522464     0.01400
H496        H  0.15182326  0.37544042  0.92848937     0.09000
H497        H  0.21574788  0.38045523  0.92721650     0.08100
N498        N  0.12503387  0.33876561  0.88386628    -0.35700
N499        N  0.12958161  0.32971840  0.87401415    -0.27900
C500        C  0.11402468  0.32449145  0.86482277    -0.03100
C501        C  0.09912937  0.33078059  0.86905979     0.05500
C502        C  0.10669379  0.33976864  0.88116432     0.03600
H503        H  0.11418522  0.31761301  0.85552040     0.08700
H504        H  0.09956695  0.34684289  0.88749874     0.07500
N505        N  0.55914014  0.13322816  0.92104353    -0.36200
N506        N  0.58198628  0.11584911  0.90601240    -0.56800
N507        N  0.54535897  0.09604031  0.88783543    -0.36200
N508        N  0.52336346  0.11522896  0.90205603    -0.56800
C509        C  0.58017458  0.14571022  0.92560247     0.27400
C510        C  0.54805498  0.14384995  0.92415345     0.27400
C511        C  0.56106209  0.09384889  0.88143364     0.27400
C512        C  0.53024792  0.09444664  0.87904476     0.27400
C513        C  0.59556485  0.12351916  0.91636395     0.36000
C514        C  0.58764642  0.10269587  0.89947731     0.36000
C515        C  0.51361133  0.12037309  0.91162183     0.36000
C516        C  0.50693928  0.10216360  0.89373624     0.36000
C517        C  0.58239990  0.16439184  0.93177198    -0.21500
C518        C  0.56208554  0.16317253  0.93089837    -0.21500
C519        C  0.55576515  0.09059729  0.86844863    -0.21500
C520        C  0.53636674  0.09107077  0.86693220    -0.21500
C521        C  0.60972610  0.11498462  0.91651067    -0.22500
C522        C  0.60465304  0.10170837  0.90581645    -0.22500
C523        C  0.49089312  0.11040150  0.90943264    -0.22500
C524        C  0.48666431  0.09887554  0.89807795    -0.22500
C525        C  0.59706278  0.14014808  0.92475207    -0.17900
C526        C  0.52537875  0.13605141  0.92141894    -0.17900
C527        C  0.51038101  0.09452266  0.88184786    -0.17900
C528        C  0.57961670  0.09397026  0.88709773    -0.17900
H529        H  0.59711228  0.17755806  0.93642426     0.15000
H530        H  0.55815864  0.17523145  0.93472022     0.15000
H531        H  0.56494577  0.08818356  0.86084034     0.15000
H532        H  0.52769324  0.08902310  0.85793538     0.15000
H533        H  0.62276551  0.11847881  0.92340217     0.13300
H534        H  0.61305287  0.09297088  0.90281021     0.13300
H535        H  0.47872840  0.11170985  0.91526473     0.13300
H536        H  0.47055477  0.08937805  0.89347927     0.13300
H537        H  0.55205415  0.11732184  0.91711812     0.26600
H538        H  0.54381346  0.09621282  0.89778654     0.26600
N539        N  0.78548051  0.28891867  0.96676416    -0.26900
N540        N  0.77092286  0.28209641  0.95725402    -0.34700
C541        C  0.77899914  0.29698182  0.94767177     0.01500
C542        C  0.79987151  0.31408634  0.95119910     0.07500
C543        C  0.80339621  0.30854749  0.96345937    -0.05600
H544        H  0.77003512  0.29546408  0.93887527     0.08200
H545        H  0.81799161  0.31785277  0.96943695     0.09400
Cu546      Cu  0.74100202  0.25273963  0.95728850     0.44200
Cu547      Cu  0.77979747  0.27004541  0.98325145     0.42000
Cu548      Cu  0.72540182  0.21685173  0.98439532     0.43900
N549        N  0.71166127  0.22284723  0.95810500    -0.34300
N550        N  0.70520771  0.20945599  0.96817364    -0.28500
C551        C  0.68499831  0.19163085  0.96564329    -0.04600
C552        C  0.67862301  0.19405785  0.95334056     0.07600
C553        C  0.69605572  0.21403439  0.94890093     0.01400
H554        H  0.67584389  0.17786521  0.97219706     0.09000
H555        H  0.69718026  0.22192110  0.93973843     0.08100
N556        N  0.75068019  0.22738353  0.99810546    -0.35700
N557        N  0.77016511  0.24615090  0.99756931    -0.27900
C558        C  0.78294509  0.24665579  0.00742496    -0.03100
C559        C  0.77094653  0.22741351  0.01460663     0.05500
C560        C  0.75057887  0.21560761  0.00839024     0.03600
H561        H  0.79984858  0.25998976  0.00913423     0.08700
H562        H  0.73697147  0.19919341  0.01081161     0.07500
N563        N  0.70388623  0.05734592  0.81078075    -0.26900
N564        N  0.70150991  0.07402223  0.81486849    -0.34700
C565        C  0.71513637  0.09238320  0.80806040     0.01500
C566        C  0.72659041  0.08711097  0.79917798     0.07500
C567        C  0.71916792  0.06477339  0.80128681    -0.05600
H568        H  0.71635560  0.10835034  0.80943238     0.08200
H569        H  0.72387148  0.05443281  0.79597552     0.09400
Cu570      Cu  0.67889384  0.07166569  0.82879677     0.44200
Cu571      Cu  0.68537280  0.02480590  0.81755665     0.42000
Cu572      Cu  0.64223727  0.01694774  0.83993852     0.43900
N573        N  0.65355494  0.06441674  0.84195683    -0.34300
N574        N  0.63987026  0.04389158  0.84591042    -0.28500
C575        C  0.62515483  0.04391858  0.85424007    -0.04600
C576        C  0.62965011  0.06560323  0.85569138     0.07600
C577        C  0.64784374  0.07816406  0.84767316     0.01400
H578        H  0.61227645  0.02914426  0.85897357     0.09000
H579        H  0.65612303  0.09586761  0.84586191     0.08100
N580        N  0.64829545  0.99202748  0.83450948    -0.35700
N581        N  0.66398000  0.99451326  0.82639534    -0.27900
C582        C  0.66392715  0.97516517  0.82570392    -0.03100
C583        C  0.64732801  0.95972320  0.83378731     0.05500
C584        C  0.63797441  0.97127385  0.83923787     0.03600
H585        H  0.67546732  0.97274869  0.81994864     0.08700
H586        H  0.62534942  0.96564864  0.84661987     0.07500
N587        N  0.71127141  0.64952494  0.81040184    -0.26900
N588        N  0.70439733  0.62815314  0.81206405    -0.34700
C589        C  0.71548294  0.62219264  0.80397464     0.01500
C590        C  0.73016699  0.64058713  0.79680591     0.07500
C591        C  0.72698157  0.65763936  0.80114459    -0.05600
H592        H  0.71298576  0.60557280  0.80342832     0.08200
H593        H  0.73502146  0.67459291  0.79766269     0.09400
Cu594      Cu  0.67984404  0.60674702  0.82467236     0.44200
Cu595      Cu  0.69879096  0.66693311  0.82041274     0.42000
Cu596      Cu  0.65011978  0.62930652  0.83884312     0.43900
N597        N  0.65347514  0.58844862  0.83703099    -0.34300
N598        N  0.64217812  0.59700768  0.84217639    -0.28500
C599        C  0.62655079  0.58200356  0.85010050    -0.04600
C600        C  0.62793109  0.56285099  0.84990988     0.07600
C601        C  0.64529731  0.56760804  0.84149554     0.01400
H602        H  0.61523001  0.58500146  0.85569160     0.09000
H603        H  0.65208295  0.55711806  0.83911717     0.08100
N604        N  0.66256408  0.66305114  0.83774797    -0.35700
N605        N  0.68071278  0.67743142  0.83146047    -0.27900
C606        C  0.68444376  0.69815399  0.83370532    -0.03100
C607        C  0.66773810  0.69654193  0.84182022     0.05500
C608        C  0.65425500  0.67395501  0.84406341     0.03600
H609        H  0.69848342  0.71317422  0.82990757     0.08700
H610        H  0.63936428  0.66579406  0.84990434     0.07500
N611        N  0.64121360  0.79042635  0.86314355    -0.26900
N612        N  0.63541777  0.77985336  0.87429835    -0.34700
C613        C  0.63927847  0.76284511  0.87397066     0.01500
C614        C  0.64774152  0.76232938  0.86196724     0.07500
C615        C  0.64882240  0.78023630  0.85539061    -0.05600
H616        H  0.63624046  0.75190659  0.88204717     0.08200
H617        H  0.65438522  0.78532756  0.84560850     0.09400
Cu618      Cu  0.62167517  0.78778598  0.88964425     0.44200
Cu619      Cu  0.63845758  0.81821395  0.85907484     0.42000
Cu620      Cu  0.61371149  0.83345679  0.88557741     0.43900
N621        N  0.60693475  0.79724508  0.90366453    -0.34300
N622        N  0.60414279  0.81449705  0.90224652    -0.28500
C623        C  0.59381125  0.81628871  0.91273996    -0.04600
C624        C  0.58962074  0.79908367  0.92112350     0.07600
C625        C  0.59832549  0.78743697  0.91503728     0.01400
H626        H  0.58909239  0.82876907  0.91398739     0.09000
H627        H  0.59845450  0.77290320  0.91857600     0.08100
N628        N  0.62436079  0.85032769  0.86822294    -0.35700
N629        N  0.63364676  0.84538062  0.85865904    -0.27900
C630        C  0.63904002  0.86054630  0.84919260    -0.03100
C631        C  0.63260240  0.87555374  0.85298674     0.05500
C632        C  0.62339314  0.86847454  0.86507263     0.03600
H633        H  0.64685088  0.86048421  0.84020830     0.08700
H634        H  0.61686630  0.87626092  0.87130485     0.07500
N635        N  0.85710916  0.43203988  0.91935526    -0.36200
N636        N  0.87595862  0.47026312  0.90243522    -0.56800
N637        N  0.89540854  0.45014498  0.88629208    -0.36200
N638        N  0.87454509  0.41082676  0.90238273    -0.56800
C639        C  0.84606119  0.44229435  0.92339971     0.27400
C640        C  0.84528484  0.41062237  0.92333867     0.27400
C641        C  0.89872835  0.46734124  0.87871333     0.27400
C642        C  0.89860902  0.43601395  0.87890409     0.27400
C643        C  0.86882807  0.47826150  0.91200769     0.36000
C644        C  0.88866445  0.48766678  0.89461482     0.36000
C645        C  0.86679161  0.39591084  0.91211549     0.36000
C646        C  0.88705727  0.40551086  0.89489887     0.36000
C647        C  0.82716764  0.42727871  0.93016262    -0.21500
C648        C  0.82667561  0.40730115  0.93012643    -0.21500
C649        C  0.90462870  0.46437049  0.86643876    -0.21500
C650        C  0.90456409  0.44459191  0.86656405    -0.21500
C651        C  0.87721097  0.50087873  0.91032178    -0.22500
C652        C  0.88964765  0.50680597  0.89925747    -0.22500
C653        C  0.87441468  0.38108304  0.91081009    -0.22500
C654        C  0.88718911  0.38712046  0.89987689    -0.22500
C655        C  0.85281649  0.46494995  0.92135214    -0.17900
C656        C  0.85129996  0.39422143  0.92147841    -0.17900
C657        C  0.89698353  0.41595043  0.88311617    -0.17900
C658        C  0.89764953  0.48615668  0.88272518    -0.17900
H659        H  0.81489348  0.43031992  0.93459489     0.15000
H660        H  0.81396547  0.39202742  0.93455236     0.15000
H661        H  0.90867328  0.47535902  0.85824341     0.15000
H662        H  0.90845597  0.43735958  0.85848188     0.15000
H663        H  0.87415411  0.51184038  0.91623657     0.13300
H664        H  0.89806368  0.52324370  0.89497987     0.13300
H665        H  0.87083701  0.36712066  0.91696755     0.13300
H666        H  0.89540760  0.37875561  0.89595400     0.13300
H667        H  0.87287552  0.43967272  0.91521613     0.26600
H668        H  0.89323298  0.44921723  0.89619930     0.26600
N669        N  0.70856382  0.50995232  0.96283676    -0.26900
N670        N  0.71534805  0.50334574  0.95280323    -0.34700
C671        C  0.69893737  0.49410419  0.94408344     0.01500
C672        C  0.68062229  0.49457501  0.94883760     0.07500
C673        C  0.68742904  0.50501469  0.96072806    -0.05600
H674        H  0.70040395  0.48748524  0.93496829     0.08200
H675        H  0.67756771  0.50818734  0.96750267     0.09400
Cu676      Cu  0.74573866  0.50520668  0.95153835     0.44200
Cu677      Cu  0.72871857  0.52440775  0.97889700     0.42000
Cu678      Cu  0.78300619  0.52646419  0.97812082     0.43900
N679        N  0.77529657  0.50523037  0.95211903    -0.34300
N680        N  0.78923521  0.51276066  0.96193989    -0.28500
C681        C  0.80640421  0.50953938  0.95943919    -0.04600
C682        C  0.80306856  0.49961262  0.94739962     0.07600
C683        C  0.78305944  0.49706763  0.94314235     0.01400
H684        H  0.82021763  0.51402218  0.96591354     0.09000
H685        H  0.77424236  0.48914250  0.93436937     0.08100
N686        N  0.77261107  0.53966674  0.99273534    -0.35700
N687        N  0.75314387  0.53873006  0.99309309    -0.27900
C688        C  0.75226035  0.54923166  0.00375185    -0.03100
C689        C  0.77211989  0.55726269  0.01045421     0.05500
C690        C  0.78458501  0.55088076  0.00312459     0.03600
H691        H  0.73839557  0.55143869  0.00616329     0.08700
H692        H  0.80121984  0.55415775  0.00516329     0.07500
N693        N  0.56115368  0.42797008  0.91762158    -0.36200
N694        N  0.58235154  0.46860964  0.90215415    -0.56800
N695        N  0.54599616  0.44739974  0.88378173    -0.36200
N696        N  0.52358580  0.40789312  0.90035871    -0.56800
C697        C  0.57789406  0.44170805  0.92556778     0.27400
C698        C  0.54722735  0.40952414  0.92443937     0.27400
C699        C  0.55689959  0.46844403  0.87913007     0.27400
C700        C  0.52534614  0.43702567  0.87858419     0.27400
C701        C  0.59927255  0.47322168  0.91031576     0.36000
C702        C  0.59129505  0.48338700  0.89238371     0.36000
C703        C  0.51841346  0.38973537  0.90758231     0.36000
C704        C  0.50968775  0.40063304  0.89014200     0.36000
C705        C  0.57454981  0.43193695  0.93761572    -0.21500
C706        C  0.55517508  0.41160891  0.93690501    -0.21500
C707        C  0.54319033  0.47138708  0.87068490    -0.21500
C708        C  0.52322104  0.45158294  0.87038493    -0.21500
C709        C  0.61889443  0.49133795  0.90586731    -0.22500
C710        C  0.61382701  0.49779405  0.89451156    -0.22500
C711        C  0.50095884  0.37087259  0.90200847    -0.22500
C712        C  0.49535570  0.37779071  0.89098276    -0.22500
C713        C  0.59730307  0.46158405  0.92184363    -0.17900
C714        C  0.52864407  0.39012918  0.91941325    -0.17900
C715        C  0.50878205  0.41445913  0.88048041    -0.17900
C716        C  0.57923376  0.48470821  0.88183756    -0.17900
H717        H  0.58529095  0.43851813  0.94595086     0.15000
H718        H  0.54803714  0.39951315  0.94460202     0.15000
H719        H  0.54716268  0.48625669  0.86529886     0.15000
H720        H  0.50884372  0.44823490  0.86467220     0.15000
H721        H  0.63520325  0.49906123  0.91030520     0.13300
H722        H  0.62543047  0.51147019  0.88848490     0.13300
H723        H  0.49296684  0.35394239  0.90556633     0.13300
H724        H  0.48221178  0.36721554  0.88434602     0.13300
H725        H  0.56108908  0.42965232  0.90770411     0.26600
H726        H  0.55303874  0.43985483  0.88905838     0.26600
N727        N  0.48223649  0.28046362  0.96215346    -0.26900
N728        N  0.48930610  0.27368058  0.95233045    -0.34700
C729        C  0.49849201  0.28992361  0.94348065     0.01500
C730        C  0.49699936  0.30789856  0.94779353     0.07500
C731        C  0.48656148  0.30131026  0.95970826    -0.05600
H732        H  0.50547510  0.28857925  0.93445880     0.08200
H733        H  0.48275379  0.31104270  0.96621448     0.09400
Cu734      Cu  0.48613857  0.24267019  0.95121162     0.44200
Cu735      Cu  0.46767462  0.26047155  0.97832779     0.42000
Cu736      Cu  0.46462695  0.20567942  0.97802024     0.43900
N737        N  0.48398674  0.21207929  0.95168625    -0.34300
N738        N  0.47653292  0.19838395  0.96161314    -0.28500
C739        C  0.47896943  0.18075906  0.95912963    -0.04600
C740        C  0.48826201  0.18351515  0.94696430     0.07600
C741        C  0.49125910  0.20363664  0.94261449     0.01400
H742        H  0.47463395  0.16718788  0.96576397     0.09000
H743        H  0.49921624  0.21222372  0.93379426     0.08100
N744        N  0.45371664  0.21745242  0.99293547    -0.35700
N745        N  0.45479811  0.23697960  0.99313896    -0.27900
C746        C  0.44638652  0.23898548  0.00437969    -0.03100
C747        C  0.43955803  0.21979163  0.01154357     0.05500
C748        C  0.44455722  0.20657584  0.00396959     0.03600
H749        H  0.44516768  0.25332628  0.00707906     0.08700
H750        H  0.44218341  0.19039737  0.00634478     0.07500
N751        N  0.98883763  0.67831901  0.83175172    -0.26900
N752        N  0.98863138  0.66674042  0.84189447    -0.34700
C753        C  0.00579688  0.67980509  0.84961818     0.01500
C754        C  0.01766829  0.70069597  0.84412280     0.07500
C755        C  0.00652435  0.69917674  0.83273360    -0.05600
H756        H  0.00937455  0.67441874  0.85861417     0.08200
H757        H  0.01044950  0.71243473  0.82593735     0.09400
Cu758      Cu  0.96574229  0.63360850  0.84513386     0.44200
Cu759      Cu  0.96355444  0.66524670  0.81786991     0.42000
Cu760      Cu  0.92191689  0.60604319  0.82276379     0.43900
N761        N  0.94394596  0.59972508  0.84570186    -0.34300
N762        N  0.92780673  0.58920992  0.83723592    -0.28500
C763        C  0.91666145  0.56732741  0.84002703    -0.04600
C764        C  0.92625904  0.56392265  0.85087547     0.07600
C765        C  0.94357939  0.58495013  0.85413241     0.01400
H766        H  0.90267986  0.55498664  0.83450199     0.09000
H767        H  0.95485358  0.58937623  0.86220824     0.08100
N768        N  0.91873571  0.62669550  0.80964864    -0.35700
N769        N  0.93368536  0.64785816  0.80755538    -0.27900
C770        C  0.92563530  0.65586476  0.79853730    -0.03100
C771        C  0.90456135  0.63894260  0.79476598     0.05500
C772        C  0.90087485  0.62078250  0.80216761     0.03600
H773        H  0.93446686  0.67285910  0.79509604     0.08700
H774        H  0.88611083  0.60447071  0.80252160     0.07500
N775        N  0.32179060  0.99508035  0.82895595    -0.26900
N776        N  0.33523882  0.99034243  0.83538991    -0.34700
C777        C  0.32291004  0.97152406  0.84213507     0.01500
C778        C  0.30041917  0.96381147  0.83995573     0.07500
C779        C  0.30054355  0.97935384  0.83146324    -0.05600
H780        H  0.33005426  0.96446659  0.84844835     0.08200
H781        H  0.28643794  0.97982787  0.82754910     0.09400
Cu782      Cu  0.36973620  0.01062997  0.83607836     0.44200
Cu783      Cu  0.33266399  0.02356566  0.81773442     0.42000
Cu784      Cu  0.39151199  0.06342448  0.82016715     0.43900
N785        N  0.40254803  0.03638544  0.83809668    -0.34300
N786        N  0.41023345  0.05604920  0.83259619    -0.28500
C787        C  0.43082288  0.07012137  0.83710266    -0.04600
C788        C  0.43654686  0.05876831  0.84580953     0.07600
C789        C  0.41817507  0.03736034  0.84614934     0.01400
H790        H  0.44058441  0.08755398  0.83454295     0.09000
H791        H  0.41567746  0.02393340  0.85246212     0.08100
N792        N  0.36974552  0.06833722  0.80889839    -0.35700
N793        N  0.34814308  0.05400625  0.80808162    -0.27900
C794        C  0.33874590  0.06276989  0.80056072    -0.03100
C795        C  0.35526922  0.08372673  0.79635471     0.05500
C796        C  0.37469864  0.08647851  0.80188499     0.03600
H797        H  0.32107304  0.05455256  0.79866856     0.08700
H798        H  0.39134187  0.10070617  0.80103280     0.07500
N799        N  0.19376037  0.85775609  0.86995764    -0.26900
N800        N  0.20657037  0.86290780  0.88026995    -0.34700
C801        C  0.22635841  0.88112618  0.87783001     0.01500
C802        C  0.22624013  0.88787967  0.86532894     0.07500
C803        C  0.20518663  0.87276746  0.86064175    -0.05600
H804        H  0.23985907  0.88879732  0.88470519     0.08200
H805        H  0.19887460  0.87234378  0.85106659     0.09400
Cu806      Cu  0.19774818  0.84460663  0.89708132     0.44200
Cu807      Cu  0.16172074  0.82990828  0.86918770     0.42000
Cu808      Cu  0.14405598  0.79563963  0.89845842     0.43900
N809        N  0.18713796  0.82313496  0.91258808    -0.34300
N810        N  0.16724402  0.80504443  0.91317162    -0.28500
C811        C  0.16560248  0.79424874  0.92421046    -0.04600
C812        C  0.18550417  0.80612000  0.93095013     0.07600
C813        C  0.19877037  0.82434621  0.92318232     0.01400
H814        H  0.15099279  0.77878692  0.92702628     0.09000
H815        H  0.21587782  0.83722400  0.92478112     0.08100
N816        N  0.12445814  0.78898626  0.88215403    -0.35700
N817        N  0.13067971  0.80111317  0.87152729    -0.27900
C818        C  0.11418223  0.79134150  0.86277626    -0.03100
C819        C  0.09667846  0.77217238  0.86815412     0.05500
C820        C  0.10396425  0.77128632  0.88044699     0.03600
H821        H  0.11503743  0.79762564  0.85314650     0.08700
H822        H  0.09551895  0.75826921  0.88752603     0.07500
N823        N  0.05849866  0.34651716  0.30913045    -0.26900
N824        N  0.07315141  0.36792291  0.31073909    -0.34700
C825        C  0.09045837  0.37383091  0.30278785     0.01500
C826        C  0.08659303  0.35533682  0.29572048     0.07500
C827        C  0.06617552  0.33828666  0.30007499    -0.05600
H828        H  0.10504383  0.39032013  0.30252247     0.08200
H829        H  0.05750595  0.32111033  0.29693958     0.09400
Cu830      Cu  0.07013449  0.38876914  0.32375809     0.44200
Cu831      Cu  0.02926928  0.32900139  0.31970826     0.42000
Cu832      Cu  0.02324171  0.36286086  0.34411764     0.43900
N833        N  0.06385588  0.40616287  0.33767170    -0.34300
N834        N  0.04623703  0.39634593  0.34522448    -0.28500
C835        C  0.04670560  0.41132165  0.35353301    -0.04600
C836        C  0.06562428  0.43175181  0.35111621     0.07600
C837        C  0.07612556  0.42777112  0.34096289     0.01400
H838        H  0.03422161  0.40747159  0.36085227     0.09000
H839        H  0.09188052  0.43939203  0.33655171     0.08100
N840        N  0.00236317  0.32902687  0.34226459    -0.35700
N841        N  0.00386156  0.31640767  0.33329206    -0.27900
C842        C  0.98755828  0.29512808  0.33520260    -0.03100
C843        C  0.97550233  0.29450142  0.34598466     0.05500
C844        C  0.98540057  0.31628202  0.35015187     0.03600
H845        H  0.98515621  0.28115233  0.32943619     0.08700
H846        H  0.98062576  0.32250940  0.35834698     0.07500
N847        N  0.64699383  0.93828594  0.31282618    -0.26900
N848        N  0.62535789  0.92418415  0.31414018    -0.34700
C849        C  0.61921118  0.90694770  0.30606121     0.01500
C850        C  0.63780291  0.91026193  0.29927329     0.07500
C851        C  0.65511575  0.93029546  0.30388800    -0.05600
H852        H  0.60243558  0.89287115  0.30539766     0.08200
H853        H  0.67235578  0.93865989  0.30085796     0.09400
Cu854      Cu  0.60449928  0.92857632  0.32660287     0.44200
Cu855      Cu  0.66480603  0.96827660  0.32279144     0.42000
Cu856      Cu  0.63000073  0.98275894  0.34062530     0.43900
N857        N  0.58788989  0.93851545  0.33913326    -0.34300
N858        N  0.59752963  0.95873021  0.34410818    -0.28500
C859        C  0.58344046  0.96021668  0.35228677    -0.04600
C860        C  0.56383675  0.93988891  0.35253614     0.07600
C861        C  0.56716952  0.92653384  0.34399165     0.01400
H862        H  0.58739704  0.97500432  0.35772927     0.09000
H863        H  0.55569765  0.90918513  0.34182011     0.08100
N864        N  0.66382260  0.00338400  0.33897448    -0.35700
N865        N  0.67708190  0.99818636  0.33277075    -0.27900
C866        C  0.69830743  0.01477939  0.33438815    -0.03100
C867        C  0.69834843  0.03123051  0.34205369     0.05500
C868        C  0.67602538  0.02320013  0.34469912     0.03600
H869        H  0.71245629  0.01455382  0.33032151     0.08700
H870        H  0.66896936  0.03063818  0.35078113     0.07500
N871        N  0.86357194  0.19508562  0.37466056    -0.26900
N872        N  0.86833050  0.20864165  0.38457725    -0.34700
C873        C  0.88825612  0.22697452  0.38261632     0.01500
C874        C  0.89669968  0.22493085  0.37092773     0.07500
C875        C  0.88042532  0.20446876  0.36613711    -0.05600
H876        H  0.89550010  0.24101761  0.38911019     0.08200
H877        H  0.88065296  0.19693558  0.35708298     0.09400
Cu878      Cu  0.84759404  0.20279487  0.40025858     0.44200
Cu879      Cu  0.83398525  0.16501670  0.37282410     0.42000
Cu880      Cu  0.79457930  0.15295407  0.39875936     0.43900
N881        N  0.82330095  0.19416056  0.41426100    -0.34300
N882        N  0.80368152  0.17570944  0.41358716    -0.28500
C883        C  0.79113471  0.17490720  0.42361647    -0.04600
C884        C  0.80338069  0.19386697  0.43102393     0.07600
C885        C  0.82380534  0.20562822  0.42480838     0.01400
H886        H  0.77437544  0.16135306  0.42535917     0.09000
H887        H  0.83781759  0.22159682  0.42756063     0.08100
N888        N  0.78771551  0.13343858  0.38250095    -0.35700
N889        N  0.80209358  0.13749793  0.37310908    -0.27900
C890        C  0.79194169  0.12217559  0.36379318    -0.03100
C891        C  0.77005036  0.10806461  0.36744121     0.05500
C892        C  0.76800796  0.11562089  0.37937476     0.03600
H893        H  0.79964713  0.12192473  0.35480396     0.08700
H894        H  0.75321244  0.10887216  0.38530250     0.07500
N895        N  0.28665043  0.35010938  0.31193003    -0.26900
N896        N  0.29245823  0.37108608  0.31410313    -0.34700
C897        C  0.27958564  0.37619729  0.30697841     0.01500
C898        C  0.26501265  0.35772788  0.29977909     0.07500
C899        C  0.26989166  0.34140586  0.30327197    -0.05600
H900        H  0.28087784  0.39232215  0.30712227     0.08200
H901        H  0.26216174  0.32457501  0.29959675     0.09400
Cu902      Cu  0.31830666  0.39318796  0.32597316     0.44200
Cu903      Cu  0.30175294  0.33434733  0.32095129     0.42000
Cu904      Cu  0.34607180  0.37088975  0.34303393     0.43900
N905        N  0.34569546  0.41275428  0.33759026    -0.34300
N906        N  0.35605213  0.40413791  0.34382763    -0.28500
C907        C  0.37219902  0.41987433  0.35116741    -0.04600
C908        C  0.37208028  0.43953924  0.34955317     0.07600
C909        C  0.35504860  0.43441193  0.34079928     0.01400
H910        H  0.38269274  0.41692393  0.35756777     0.09000
H911        H  0.34902391  0.44518175  0.33757975     0.08100
N912        N  0.33379509  0.33721847  0.34145188    -0.35700
N913        N  0.31842064  0.32380115  0.33314296    -0.27900
C914        C  0.31504570  0.30308792  0.33467504    -0.03100
C915        C  0.32869198  0.30366095  0.34455966     0.05500
C916        C  0.34028720  0.32550257  0.34860292     0.03600
H917        H  0.30314850  0.28862924  0.32926634     0.08700
H918        H  0.35272778  0.33246638  0.35613117     0.07500
N919        N  0.28345506  0.93980985  0.31120793    -0.26900
N920        N  0.29006736  0.92531920  0.31342462    -0.34700
C921        C  0.27814356  0.90721662  0.30608374     0.01500
C922        C  0.26335796  0.91030622  0.29874370     0.07500
C923        C  0.26705392  0.93110399  0.30233999    -0.05600
H924        H  0.28019686  0.89284050  0.30617140     0.08200
H925        H  0.25881515  0.93954420  0.29856462     0.09400
Cu926      Cu  0.31561929  0.92972102  0.32557626     0.44200
Cu927      Cu  0.29720179  0.97112637  0.31993952     0.42000
Cu928      Cu  0.34184175  0.98071443  0.34156181     0.43900
N929        N  0.34257967  0.93869821  0.33763613    -0.34300
N930        N  0.35218736  0.95796216  0.34371721    -0.28500
C931        C  0.36837614  0.95934974  0.35137014    -0.04600
C932        C  0.36917975  0.93999943  0.35000934     0.07600
C933        C  0.35253866  0.92723945  0.34118129     0.01400
H934        H  0.37850770  0.97326713  0.35765337     0.09000
H935        H  0.34734717  0.91049847  0.33803738     0.08100
N936        N  0.33096803  0.00292934  0.33881748    -0.35700
N937        N  0.31485397  0.00009519  0.33093729    -0.27900
C938        C  0.31200517  0.01780881  0.33208278    -0.03100
C939        C  0.32715529  0.03244312  0.34112991     0.05500
C940        C  0.33868670  0.02216146  0.34517418     0.03600
H941        H  0.29954130  0.01964020  0.32691292     0.08700
H942        H  0.35113127  0.02750175  0.35265232     0.07500
N943        N  0.34212365  0.20396879  0.37031115    -0.26900
N944        N  0.34974590  0.21647259  0.38074231    -0.34700
C945        C  0.35027200  0.23575099  0.37867195     0.01500
C946        C  0.34262815  0.23549336  0.36632492     0.07500
C947        C  0.33769404  0.21505733  0.36128752    -0.05600
H948        H  0.35548957  0.24882410  0.38576921     0.08200
H949        H  0.33043557  0.20823900  0.35199770     0.09400
Cu950      Cu  0.35806130  0.20677160  0.39769402     0.44200
Cu951      Cu  0.33672249  0.17187448  0.36919436     0.42000
Cu952      Cu  0.35271377  0.15313425  0.39805043     0.43900
N953        N  0.36589151  0.19423278  0.41364303    -0.34300
N954        N  0.36408383  0.17443131  0.41379382    -0.28500
C955        C  0.37161139  0.17161948  0.42516071    -0.04600
C956        C  0.37843531  0.19058633  0.43256841     0.07600
C957        C  0.37452180  0.20454527  0.42490072     0.01400
H958        H  0.37243313  0.15700358  0.42773263     0.09000
H959        H  0.37859946  0.22138581  0.42705228     0.08100
N960        N  0.34141263  0.13497966  0.38108602    -0.35700
N961        N  0.33482420  0.14127683  0.37078804    -0.27900
C962        C  0.32910256  0.12582472  0.36149962    -0.03100
C963        C  0.33258006  0.10921373  0.36612982     0.05500
C964        C  0.34043606  0.11560411  0.37853881     0.03600
H965        H  0.32409567  0.12726367  0.35185708     0.08700
H966        H  0.34562466  0.10706960  0.38513301     0.07500
N967        N  0.42902845  0.86962625  0.41934298    -0.36200
N968        N  0.46951477  0.88940407  0.40449011    -0.56800
N969        N  0.44911744  0.90611120  0.38620258    -0.36200
N970        N  0.40985608  0.88876144  0.40223403    -0.56800
C971        C  0.44243073  0.86629990  0.42731336     0.27400
C972        C  0.41143648  0.86673194  0.42636909     0.27400
C973        C  0.47046660  0.91694987  0.38207418     0.27400
C974        C  0.43881798  0.91611951  0.38069935     0.27400
C975        C  0.47326809  0.87576246  0.41200958     0.36000
C976        C  0.48446057  0.89608559  0.39478534     0.36000
C977        C  0.39171686  0.87529485  0.40937114     0.36000
C978        C  0.40232951  0.89447124  0.39176896     0.36000
C979        C  0.43336177  0.86143510  0.43958139    -0.21500
C980        C  0.41375075  0.86169384  0.43898267    -0.21500
C981        C  0.47374650  0.93393602  0.37375036    -0.21500
C982        C  0.45375342  0.93341053  0.37288572    -0.21500
C983        C  0.49084107  0.87400613  0.40712067    -0.22500
C984        C  0.49805665  0.88703864  0.39628543    -0.22500
C985        C  0.37263307  0.87264999  0.40349361    -0.22500
C986        C  0.37937779  0.88488031  0.39235840    -0.22500
C987        C  0.46151348  0.86557046  0.42347831    -0.17900
C988        C  0.39224005  0.86602781  0.42135760    -0.17900
C989        C  0.41603277  0.90931169  0.38207523    -0.17900
C990        C  0.48650638  0.91075955  0.38477152    -0.17900
H991        H  0.43994185  0.85759184  0.44800535     0.15000
H992        H  0.40219537  0.85800829  0.44684697     0.15000
H993        H  0.48890558  0.94533943  0.36868499     0.15000
H994        H  0.45053491  0.94437228  0.36707085     0.15000
H995        H  0.49775997  0.86432138  0.41089270     0.13300
H996        H  0.51160413  0.88935396  0.39012434     0.13300
H997        H  0.35561560  0.86296609  0.40686559     0.13300
H998        H  0.36861137  0.88650302  0.38547514     0.13300
H999        H  0.43006526  0.87043177  0.40936537     0.26600
H1000       H  0.44143935  0.89118321  0.39124195     0.26600
N1001       N  0.51269672  0.72343986  0.45886752    -0.26900
N1002       N  0.49842058  0.72609625  0.45181922    -0.34700
C1003       C  0.48630856  0.70773896  0.44466360     0.01500
C1004       C  0.49323489  0.69267880  0.44733757     0.07500
C1005       C  0.51011827  0.70332303  0.45634384    -0.05600
H1006       H  0.47379900  0.70584474  0.43778947     0.08200
H1007       H  0.51974260  0.69689326  0.46082079     0.09400
Cu1008     Cu  0.49648061  0.75479247  0.45202793     0.44200
Cu1009     Cu  0.53479364  0.74736172  0.47163330     0.42000
Cu1010     Cu  0.53520986  0.79973608  0.47283220     0.43900
N1011       N  0.49834444  0.78536411  0.45333493    -0.34300
N1012       N  0.51261298  0.80191745  0.46074045    -0.28500
C1013       C  0.50985603  0.81952216  0.45897739    -0.04600
C1014       C  0.49297619  0.81373993  0.45003953     0.07600
C1015       C  0.48608722  0.79192497  0.44672610     0.01400
H1016       H  0.51938406  0.83526463  0.46392274     0.09000
H1017       H  0.47346297  0.78169462  0.43975003     0.08100
N1018       N  0.55528288  0.79258953  0.48427460    -0.35700
N1019       N  0.55484168  0.77339828  0.48394522    -0.27900
C1020       C  0.56882993  0.77360423  0.49294123    -0.03100
C1021       C  0.57875392  0.79397778  0.49920213     0.05500
C1022       C  0.56971222  0.80557344  0.49343480     0.03600
H1023       H  0.57138196  0.75979358  0.49486347     0.08700
H1024       H  0.57265137  0.82187786  0.49603987     0.07500
N1025       N  0.13728668  0.57035045  0.41584495    -0.36200
N1026       N  0.11656826  0.58791802  0.39907472    -0.56800
N1027       N  0.10060645  0.54879157  0.38276620    -0.36200
N1028       N  0.11949111  0.53030802  0.40047772    -0.56800
C1029       C  0.13968069  0.58768502  0.42295583     0.27400
C1030       C  0.14114433  0.55722663  0.42374334     0.27400
C1031       C  0.08887664  0.55784058  0.37800846     0.27400
C1032       C  0.09032502  0.52734979  0.37879493     0.27400
C1033       C  0.12964851  0.60636165  0.40610257     0.36000
C1034       C  0.10996433  0.59474665  0.38868266     0.36000
C1035       C  0.13343761  0.52721636  0.40809815     0.36000
C1036       C  0.11375158  0.51570067  0.39065940     0.36000
C1037       C  0.14503303  0.58552584  0.43551651    -0.21500
C1038       C  0.14594056  0.56626075  0.43601682    -0.21500
C1039       C  0.07097991  0.54200653  0.37088921    -0.21500
C1040       C  0.07190281  0.52273006  0.37137924    -0.21500
C1041       C  0.13122807  0.62496074  0.40020533    -0.22500
C1042       C  0.11870730  0.61758590  0.38916600    -0.22500
C1043       C  0.13649012  0.51048722  0.40313234    -0.22500
C1044       C  0.12395915  0.50314498  0.39208290    -0.22500
C1045       C  0.13931702  0.60641509  0.41806280    -0.17900
C1046       C  0.14238872  0.53846426  0.41984849    -0.17900
C1047       C  0.09806675  0.51240146  0.38101479    -0.17900
C1048       C  0.09481763  0.58038698  0.37929042    -0.17900
H1049       H  0.14843174  0.59692409  0.44342494     0.15000
H1050       H  0.15015295  0.55989407  0.44439245     0.15000
H1051       H  0.05867204  0.54418019  0.36576723     0.15000
H1052       H  0.06045096  0.50715760  0.36670088     0.15000
H1053       H  0.14033418  0.64203208  0.40353460     0.13300
H1054       H  0.11621467  0.62783751  0.38231825     0.13300
H1055       H  0.14650512  0.50408772  0.40711810     0.13300
H1056       H  0.12236589  0.48993551  0.38587721     0.13300
H1057       H  0.13628729  0.56928131  0.40592210     0.26600
H1058       H  0.11610197  0.55741681  0.38713699     0.26600
N1059       N  0.27614883  0.80107606  0.45734732    -0.26900
N1060       N  0.27209779  0.78553932  0.44873176    -0.34700
C1061       C  0.29006121  0.79238084  0.44121619     0.01500
C1062       C  0.30635299  0.81328727  0.44529502     0.07500
C1063       C  0.29688590  0.81839938  0.45548262    -0.05600
H1064       H  0.29102120  0.78279224  0.43332016     0.08200
H1065       H  0.30467568  0.83330750  0.46132613     0.09400
Cu1066     Cu  0.24278354  0.75544705  0.44767368     0.44200
Cu1067     Cu  0.25347348  0.79687383  0.47156288     0.42000
Cu1068     Cu  0.20031049  0.74333047  0.47096137     0.43900
N1069       N  0.21297928  0.72575780  0.44817626    -0.34300
N1070       N  0.19698908  0.72099316  0.45660872    -0.28500
C1071       C  0.18011826  0.70007593  0.45442034    -0.04600
C1072       C  0.18596804  0.69132643  0.44413825     0.07600
C1073       C  0.20690528  0.70817713  0.44046562     0.01400
H1074       H  0.16509753  0.69170008  0.46014712     0.09000
H1075       H  0.21710509  0.70775094  0.43274681     0.08100
N1076       N  0.20922742  0.76795762  0.48487402    -0.35700
N1077       N  0.22835501  0.78708797  0.48512380    -0.27900
C1078       C  0.22894258  0.79854042  0.49567508    -0.03100
C1079       C  0.20928616  0.78606350  0.50247839     0.05500
C1080       C  0.19716365  0.76681493  0.49525602     0.03600
H1081       H  0.24295688  0.81456828  0.49833651     0.08700
H1082       H  0.18073444  0.75291109  0.49729853     0.07500
N1083       N  0.43062487  0.57145715  0.41790141    -0.36200
N1084       N  0.47109642  0.59272816  0.40228089    -0.56800
N1085       N  0.45052651  0.55515028  0.38462053    -0.36200
N1086       N  0.41139402  0.53273224  0.40140801    -0.56800
C1087       C  0.44415501  0.58898731  0.42545021     0.27400
C1088       C  0.41284086  0.55719757  0.42511721     0.27400
C1089       C  0.47173972  0.56582030  0.38020383     0.27400
C1090       C  0.44022907  0.53435288  0.37964469     0.27400
C1091       C  0.47470697  0.61028091  0.40962508     0.36000
C1092       C  0.48568405  0.60115308  0.39237395     0.36000
C1093       C  0.39333099  0.52739065  0.40876763     0.36000
C1094       C  0.40392964  0.51886250  0.39117680     0.36000
C1095       C  0.43495925  0.58573166  0.43767047    -0.21500
C1096       C  0.41515233  0.56569783  0.43744229    -0.21500
C1097       C  0.47490957  0.55168963  0.37224379    -0.21500
C1098       C  0.45499212  0.53181951  0.37187601    -0.21500
C1099       C  0.49179154  0.62986987  0.40438634    -0.22500
C1100       C  0.49887789  0.62405113  0.39354171    -0.22500
C1101       C  0.37441975  0.50979989  0.40331379    -0.22500
C1102       C  0.38113121  0.50439483  0.39217269    -0.22500
C1103       C  0.46328521  0.60881126  0.42120933    -0.17900
C1104       C  0.39372519  0.53778363  0.42052008    -0.17900
C1105       C  0.41753827  0.51805635  0.38135195    -0.17900
C1106       C  0.48782213  0.58838589  0.38252002    -0.17900
H1107       H  0.44154771  0.59692794  0.44581124     0.15000
H1108       H  0.40353439  0.55844978  0.44535841     0.15000
H1109       H  0.48993995  0.55538089  0.36712285     0.15000
H1110       H  0.45170922  0.51721923  0.36642965     0.15000
H1111       H  0.49846775  0.64666739  0.40793941     0.13300
H1112       H  0.51203209  0.63541557  0.38714631     0.13300
H1113       H  0.35753496  0.50170272  0.40696189     0.13300
H1114       H  0.37043242  0.49126699  0.38556662     0.13300
H1115       H  0.43188593  0.57091132  0.40798002     0.26600
H1116       H  0.44279314  0.56238713  0.38950535     0.26600
N1117       N  0.27921940  0.48371370  0.45950496    -0.26900
N1118       N  0.27360447  0.49281070  0.45018139    -0.34700
C1119       C  0.29057659  0.50292912  0.44182294     0.01500
C1120       C  0.30795398  0.50020717  0.44601191     0.07500
C1121       C  0.30006529  0.48782398  0.45728318    -0.05600
H1122       H  0.29037021  0.51201288  0.43343048     0.08200
H1123       H  0.30908247  0.48295922  0.46370178     0.09400
Cu1124     Cu  0.24416235  0.49328724  0.44989032     0.44200
Cu1125     Cu  0.25822554  0.46768459  0.47511844     0.42000
Cu1126     Cu  0.20667142  0.47086201  0.47675375     0.43900
N1127       N  0.21635053  0.49641528  0.45195567    -0.34300
N1128       N  0.20217818  0.48811592  0.46166327    -0.28500
C1129       C  0.18618679  0.49343537  0.46000126    -0.04600
C1130       C  0.19089910  0.50602503  0.44883427     0.07600
C1131       C  0.21006483  0.50742086  0.44400972     0.01400
H1132       H  0.17241667  0.48883815  0.46652752     0.09000
H1133       H  0.21873683  0.51563726  0.43524773     0.08100
N1134       N  0.21595897  0.45478542  0.49030691    -0.35700
N1135       N  0.23427974  0.45352328  0.48964882    -0.27900
C1136       C  0.23480373  0.44172946  0.49978113    -0.03100
C1137       C  0.21591076  0.43511147  0.50724375     0.05500
C1138       C  0.20446651  0.44386028  0.50090667     0.03600
H1139       H  0.24824136  0.43857638  0.50161201     0.08700
H1140       H  0.18869038  0.44213498  0.50367272     0.07500
N1141       N  0.65404333  0.71591954  0.31105263    -0.26900
N1142       N  0.63240228  0.70802412  0.31222861    -0.34700
C1143       C  0.62660410  0.71986449  0.30466568     0.01500
C1144       C  0.64542337  0.73623608  0.29835789     0.07500
C1145       C  0.66254868  0.73310702  0.30272127    -0.05600
H1146       H  0.60972633  0.71658874  0.30392713     0.08200
H1147       H  0.68002032  0.74266616  0.30029629     0.09400
Cu1148     Cu  0.61086880  0.68217036  0.32427660     0.44200
Cu1149     Cu  0.67138402  0.70365535  0.32110995     0.42000
Cu1150     Cu  0.63642344  0.66011055  0.34371110     0.43900
N1151       N  0.59311803  0.65725972  0.33772391    -0.34300
N1152       N  0.60287667  0.64897039  0.34483603    -0.28500
C1153       C  0.58809014  0.63424752  0.35322825    -0.04600
C1154       C  0.56788945  0.63329458  0.35146377     0.07600
C1155       C  0.57170022  0.64802215  0.34143271     0.01400
H1156       H  0.59206457  0.62532375  0.36024097     0.09000
H1157       H  0.56008939  0.65249724  0.33753259     0.08100
N1158       N  0.67043650  0.67409930  0.34243943    -0.35700
N1159       N  0.68340333  0.68935723  0.33395893    -0.27900
C1160       C  0.70455000  0.69408821  0.33573452    -0.03100
C1161       C  0.70472610  0.68145627  0.34598278     0.05500
C1162       C  0.68286382  0.66901529  0.34995500     0.03600
H1163       H  0.71872986  0.70609002  0.33017299     0.08700
H1164       H  0.67635099  0.65682898  0.35762587     0.07500
N1165       N  0.05654542  0.70887667  0.31155460    -0.26900
N1166       N  0.07006477  0.70074926  0.31195366    -0.34700
C1167       C  0.08767208  0.71299078  0.30433562     0.01500
C1168       C  0.08537093  0.72974829  0.29868202     0.07500
C1169       C  0.06530315  0.72654495  0.30353424    -0.05600
H1170       H  0.10119643  0.70976774  0.30310550     0.08200
H1171       H  0.05728750  0.73595677  0.30128519     0.09400
Cu1172     Cu  0.06501197  0.67326541  0.32243064     0.44200
Cu1173     Cu  0.02674164  0.69548543  0.32192730     0.42000
Cu1174     Cu  0.01479706  0.64636344  0.34020146     0.43900
N1175       N  0.05691797  0.64631543  0.33429105    -0.34300
N1176       N  0.03822447  0.63655392  0.34097250    -0.28500
C1177       C  0.03828800  0.62126835  0.34881009    -0.04600
C1178       C  0.05796959  0.62124645  0.34695547     0.07600
C1179       C  0.06938533  0.63734382  0.33761988     0.01400
H1180       H  0.02531642  0.61152341  0.35571913     0.09000
H1181       H  0.08609948  0.64316683  0.33414673     0.08100
N1182       N  0.99436311  0.65986629  0.34002430    -0.35700
N1183       N  0.99858198  0.67793938  0.33357179    -0.27900
C1184       C  0.98264413  0.68285650  0.33635375    -0.03100
C1185       C  0.96768073  0.66709262  0.34500129     0.05500
C1186       C  0.97576948  0.65280373  0.34702271     0.03600
H1187       H  0.98258927  0.69737541  0.33273469     0.08700
H1188       H  0.96894580  0.63846848  0.35331828     0.07500
N1189       N  0.80026189  0.66196694  0.37268510    -0.26900
N1190       N  0.78653872  0.65405922  0.38261785    -0.34700
C1191       C  0.76878244  0.65622719  0.38031156     0.01500
C1192       C  0.77132546  0.66603222  0.36835740     0.07500
C1193       C  0.79151093  0.66938375  0.36377270    -0.05600
H1194       H  0.75504651  0.65106344  0.38694129     0.08200
H1195       H  0.79964091  0.67722582  0.35482768     0.09400
Cu1196     Cu  0.79223986  0.64143390  0.39930180     0.44200
Cu1197     Cu  0.83060767  0.66308884  0.37195692     0.42000
Cu1198     Cu  0.84534924  0.64586132  0.40159107     0.43900
N1199       N  0.80190289  0.63044806  0.41519912    -0.34300
N1200       N  0.82172841  0.63239360  0.41609074    -0.28500
C1201       C  0.82304160  0.62340501  0.42726758    -0.04600
C1202       C  0.80303091  0.61539381  0.43378540     0.07600
C1203       C  0.79000116  0.62012152  0.42578728     0.01400
H1204       H  0.83726456  0.62211759  0.43016713     0.09000
H1205       H  0.77307627  0.61625318  0.42748749     0.08100
N1206       N  0.86522771  0.65642327  0.38529104    -0.35700
N1207       N  0.85977252  0.66225304  0.37440515    -0.27900
C1208       C  0.87550941  0.66644173  0.36554277    -0.03100
C1209       C  0.89169705  0.66299676  0.37107219     0.05500
C1210       C  0.88457784  0.65684936  0.38367627     0.03600
H1211       H  0.87474051  0.67092004  0.35566957     0.08700
H1212       H  0.89254329  0.65269511  0.39120623     0.07500
O1213       O  0.14719137  0.33299362  0.22795637    -0.72500
O1214       O  0.18688817  0.33374432  0.25656853    -0.73500
O1215       O  0.14516265  0.33264370  0.25530211    -0.62100
O1216       O  0.18908138  0.33447903  0.22896923    -0.70500
O1217       O  0.20649338  0.37130770  0.22937927    -0.70100
O1218       O  0.16348842  0.36953425  0.25528142    -0.61400
O1219       O  0.20465158  0.37060950  0.25655709    -0.73900
O1220       O  0.16515412  0.36988244  0.22837164    -0.72600
Cu1221     Cu  0.16646282  0.33210604  0.24219479     1.04600
Cu1222     Cu  0.18555983  0.37151997  0.24240701     1.04300
C1223       C  0.14966854  0.35141888  0.22384029     0.93700
C1224       C  0.20216101  0.35240472  0.26106427     0.92800
C1225       C  0.14730898  0.35103580  0.25926225     0.84900
C1226       C  0.20480312  0.35340157  0.22500243     0.91200
O1227       O  0.66315036  0.81536088  0.22949330    -0.72500
O1228       O  0.66158705  0.85493109  0.25734652    -0.73500
O1229       O  0.66378023  0.81500577  0.25684469    -0.62100
O1230       O  0.66100219  0.85518874  0.22994706    -0.70500
O1231       O  0.62414395  0.83488873  0.23002442    -0.70100
O1232       O  0.62687114  0.79573756  0.25727464    -0.61400
O1233       O  0.62467830  0.83530188  0.25716203    -0.73900
O1234       O  0.62628878  0.79537349  0.23012941    -0.72600
Cu1235     Cu  0.66370496  0.83584846  0.24340234     1.04600
Cu1236     Cu  0.62426873  0.81463429  0.24365927     1.04300
C1237       C  0.64479545  0.79888652  0.22549722     0.93700
C1238       C  0.64282409  0.85154421  0.26151993     0.92800
C1239       C  0.64560118  0.79892213  0.26131761     0.84900
C1240       C  0.64213822  0.85144447  0.22574277     0.91200
N1241       N  0.06200078  0.34532107  0.17271786    -0.26900
N1242       N  0.07656748  0.36671547  0.17089569    -0.34700
C1243       C  0.09398645  0.37285905  0.17881645     0.01500
C1244       C  0.09028366  0.35451732  0.18597984     0.07500
C1245       C  0.06988064  0.33732793  0.18179536    -0.05600
H1246       H  0.10847285  0.38942533  0.17911424     0.08200
H1247       H  0.06127918  0.32026691  0.18514751     0.09400
Cu1248     Cu  0.07300809  0.38736342  0.15785394     0.44200
Cu1249     Cu  0.03222790  0.32734180  0.16277268     0.42000
Cu1250     Cu  0.02222427  0.36090721  0.14054393     0.43900
N1251       N  0.06422632  0.40433099  0.14487539    -0.34300
N1252       N  0.04499691  0.39434192  0.13873425    -0.28500
C1253       C  0.04356204  0.40905143  0.13105246    -0.04600
C1254       C  0.06299345  0.42950694  0.13228513     0.07600
C1255       C  0.07568921  0.42582651  0.14121282     0.01400
H1256       H  0.02925186  0.40492818  0.12510312     0.09000
H1257       H  0.09220252  0.43774642  0.14463953     0.08100
N1258       N  0.00260988  0.32682257  0.14174936    -0.35700
N1259       N  0.00569876  0.31421755  0.15000869    -0.27900
C1260       C  0.99015765  0.29273851  0.14790106    -0.03100
C1261       C  0.97701606  0.29196072  0.13766487     0.05500
C1262       C  0.98533861  0.31386795  0.13408814     0.03600
H1263       H  0.98893954  0.27875251  0.15315712     0.08700
H1264       H  0.97927291  0.32004616  0.12649283     0.07500
N1265       N  0.64590430  0.93954044  0.17560591    -0.26900
N1266       N  0.62513507  0.92417509  0.17281716    -0.34700
C1267       C  0.61900877  0.90626200  0.18031993     0.01500
C1268       C  0.63668013  0.91044612  0.18831254     0.07500
C1269       C  0.65344864  0.93175228  0.18499186    -0.05600
H1270       H  0.60297548  0.89114034  0.17967645     0.08200
H1271       H  0.66999848  0.94101295  0.18907355     0.09400
Cu1272     Cu  0.60534566  0.92738478  0.15900783     0.44200
Cu1273     Cu  0.66370945  0.97030252  0.16645183     0.42000
Cu1274     Cu  0.63005077  0.97995502  0.14374565     0.43900
N1275       N  0.58861975  0.93523836  0.14535058    -0.34300
N1276       N  0.59777670  0.95502500  0.13986058    -0.28500
C1277       C  0.58318932  0.95540508  0.13153144    -0.04600
C1278       C  0.56380038  0.93473750  0.13170095     0.07600
C1279       C  0.56790307  0.92240230  0.14064553     0.01400
H1280       H  0.58665613  0.96959299  0.12561994     0.09000
H1281       H  0.55663234  0.90547953  0.14370798     0.08100
N1282       N  0.66339165  0.00219465  0.14717863    -0.35700
N1283       N  0.67614844  0.99895002  0.15524563    -0.27900
C1284       C  0.69720633  0.01629533  0.15431323    -0.03100
C1285       C  0.69754316  0.03120515  0.14529010     0.05500
C1286       C  0.67578903  0.02150139  0.14096330     0.03600
H1287       H  0.71122841  0.01776568  0.15966032     0.08700
H1288       H  0.66945680  0.02740487  0.13337541     0.07500
N1289       N  0.86407556  0.19132342  0.11098361    -0.26900
N1290       N  0.86785556  0.20602689  0.10184862    -0.34700
C1291       C  0.88788572  0.22417889  0.10379689     0.01500
C1292       C  0.89728789  0.22090984  0.11472162     0.07500
C1293       C  0.88165962  0.19979104  0.11901870    -0.05600
H1294       H  0.89469018  0.23900387  0.09790148     0.08200
H1295       H  0.88273500  0.19117408  0.12739300     0.09400
Cu1296     Cu  0.84559981  0.20204207  0.08744540     0.44200
Cu1297     Cu  0.83450549  0.16131877  0.11265929     0.42000
Cu1298     Cu  0.79229212  0.15300716  0.08873265     0.43900
N1299       N  0.82086929  0.19537528  0.07414588    -0.34300
N1300       N  0.80101780  0.17717588  0.07459715    -0.28500
C1301       C  0.78838913  0.17788909  0.06501447    -0.04600
C1302       C  0.80096865  0.19747272  0.05813311     0.07600
C1303       C  0.82149899  0.20814094  0.06425328     0.01400
H1304       H  0.77128225  0.16510797  0.06322383     0.09000
H1305       H  0.83567261  0.22428923  0.06197105     0.08100
N1306       N  0.78660840  0.13250888  0.10456454    -0.35700
N1307       N  0.80191279  0.13519212  0.11307883    -0.27900
C1308       C  0.79230886  0.11962714  0.12233385    -0.03100
C1309       C  0.76983858  0.10664137  0.11956814     0.05500
C1310       C  0.76684757  0.11530308  0.10825183     0.03600
H1311       H  0.80087801  0.11854795  0.13074443     0.08700
H1312       H  0.75134362  0.10972660  0.10315803     0.07500
N1313       N  0.29222570  0.35348085  0.17523108    -0.26900
N1314       N  0.29816508  0.37460982  0.17358884    -0.34700
C1315       C  0.28493394  0.37912910  0.18081615     0.01500
C1316       C  0.26982462  0.35997890  0.18738417     0.07500
C1317       C  0.27504421  0.34405220  0.18356497    -0.05600
H1318       H  0.28626124  0.39527249  0.18119911     0.08200
H1319       H  0.26737157  0.32697928  0.18679729     0.09400
Cu1320     Cu  0.32396271  0.39685556  0.16167387     0.44200
Cu1321     Cu  0.30766555  0.33824603  0.16609408     0.42000
Cu1322     Cu  0.35208471  0.37388512  0.14435850     0.43900
N1323       N  0.34933815  0.41502863  0.14849279    -0.34300
N1324       N  0.35954515  0.40632210  0.14217331    -0.28500
C1325       C  0.37429972  0.42147233  0.13394837    -0.04600
C1326       C  0.37344009  0.44082989  0.13504871     0.07600
C1327       C  0.35741150  0.43611290  0.14444079     0.01400
H1328       H  0.38431682  0.41825892  0.12731812     0.09000
H1329       H  0.35182043  0.44700642  0.14804798     0.08100
N1330       N  0.34113432  0.34058330  0.14690533    -0.35700
N1331       N  0.32499265  0.32730092  0.15484703    -0.27900
C1332       C  0.32146037  0.30649255  0.15362790    -0.03100
C1333       C  0.33591237  0.30675424  0.14434514     0.05500
C1334       C  0.34823402  0.32872406  0.14041040     0.03600
H1335       H  0.30875710  0.29211925  0.15875340     0.08700
H1336       H  0.36134003  0.33569853  0.13327084     0.07500
N1337       N  0.28386968  0.93612101  0.17445266    -0.26900
N1338       N  0.28932572  0.92083403  0.17206321    -0.34700
C1339       C  0.27712189  0.90306084  0.17961416     0.01500
C1340       C  0.26331717  0.90727837  0.18719826     0.07500
C1341       C  0.26794358  0.92835429  0.18357579    -0.05600
H1342       H  0.27829278  0.88816625  0.17952163     0.08200
H1343       H  0.26071406  0.93763967  0.18751836     0.09400
Cu1344     Cu  0.31395193  0.92458013  0.15934949     0.44200
Cu1345     Cu  0.29896234  0.96734768  0.16577591     0.42000
Cu1346     Cu  0.34703316  0.97934947  0.14679932     0.43900
N1347       N  0.34151794  0.93394943  0.14773922    -0.34300
N1348       N  0.35397981  0.95446825  0.14342305    -0.28500
C1349       C  0.37015660  0.95558760  0.13589408    -0.04600
C1350       C  0.36792386  0.93467990  0.13542631     0.07600
C1351       C  0.34949010  0.92135710  0.14307233     0.01400
H1352       H  0.38183325  0.97034695  0.13064496     0.09000
H1353       H  0.34213068  0.90373876  0.14495947     0.08100
N1354       N  0.33535990  0.00097879  0.14877591    -0.35700
N1355       N  0.31783571  0.99699482  0.15573610    -0.27900
C1356       C  0.31409726  0.01404102  0.15419885    -0.03100
C1357       C  0.32993440  0.02921074  0.14574640     0.05500
C1358       C  0.34306257  0.02033622  0.14251693     0.03600
H1359       H  0.30020732  0.01473015  0.15834204     0.08700
H1360       H  0.35681578  0.02709818  0.13578347     0.07500
N1361       N  0.34694346  0.20380498  0.12076214    -0.26900
N1362       N  0.35961196  0.21852018  0.11195605    -0.34700
C1363       C  0.35987956  0.23763375  0.11393222     0.01500
C1364       C  0.34669571  0.23514256  0.12447920     0.07500
C1365       C  0.33877910  0.21339427  0.12861430    -0.05600
H1366       H  0.36911660  0.25229455  0.10800836     0.08200
H1367       H  0.32754941  0.20491471  0.13652913     0.09400
Cu1368     Cu  0.37541102  0.21309835  0.09683219     0.44200
Cu1369     Cu  0.34135380  0.17137250  0.12148902     0.42000
Cu1370     Cu  0.36762958  0.15971092  0.09456904     0.43900
N1371       N  0.38667300  0.20335935  0.08123992    -0.34300
N1372       N  0.38345673  0.18307627  0.08034460    -0.28500
C1373       C  0.39152729  0.18091525  0.06905486    -0.04600
C1374       C  0.40037635  0.20095225  0.06246986     0.07600
C1375       C  0.39688885  0.21479222  0.07052790     0.01400
H1376       H  0.39095936  0.16583266  0.06592288     0.09000
H1377       H  0.40075231  0.23164599  0.06865902     0.08100
N1378       N  0.35163221  0.13814987  0.10957359    -0.35700
N1379       N  0.34168233  0.14171710  0.11933085    -0.27900
C1380       C  0.33379995  0.12413710  0.12738520    -0.03100
C1381       C  0.33912946  0.10884546  0.12242004     0.05500
C1382       C  0.35055153  0.11855769  0.11114877     0.03600
H1383       H  0.32525683  0.12285771  0.13631560     0.08700
H1384       H  0.35853736  0.11256744  0.10471932     0.07500
N1385       N  0.27950547  0.79614665  0.02224205    -0.26900
N1386       N  0.27508862  0.78149922  0.03149369    -0.34700
C1387       C  0.29175552  0.79008286  0.04008893     0.01500
C1388       C  0.30757159  0.81130078  0.03612550     0.07500
C1389       C  0.29933552  0.81454223  0.02466802    -0.05600
H1390       H  0.29237444  0.78128117  0.04850767     0.08200
H1391       H  0.30695201  0.82928941  0.01868370     0.09400
Cu1392     Cu  0.24653998  0.75058220  0.03215100     0.44200
Cu1393     Cu  0.25708567  0.78978121  0.00742819     0.42000
Cu1394     Cu  0.20295451  0.73611094  0.00918028     0.43900
N1395       N  0.21713479  0.72037104  0.03219940    -0.34300
N1396       N  0.20076955  0.71467124  0.02388405    -0.28500
C1397       C  0.18391765  0.69414503  0.02693918    -0.04600
C1398       C  0.19012768  0.68661722  0.03768052     0.07600
C1399       C  0.21128170  0.70384993  0.04071664     0.01400
H1400       H  0.16831807  0.68540194  0.02174924     0.09000
H1401       H  0.22154659  0.70480978  0.04877853     0.08100
N1402       N  0.21112019  0.76117024  0.99557028    -0.35700
N1403       N  0.23052679  0.77997017  0.99487463    -0.27900
C1404       C  0.23029165  0.79183266  0.98474837    -0.03100
C1405       C  0.20979023  0.78009176  0.97865732     0.05500
C1406       C  0.19804127  0.76073751  0.98589974     0.03600
H1407       H  0.24433691  0.80771723  0.98192811     0.08700
H1408       H  0.18120595  0.74720997  0.98439039     0.07500
N1409       N  0.13508749  0.56821676  0.06912990    -0.36200
N1410       N  0.11524764  0.52811505  0.08445904    -0.56800
N1411       N  0.09618071  0.54752203  0.10132539    -0.36200
N1412       N  0.11451939  0.58685956  0.08504559    -0.56800
C1413       C  0.13851552  0.55456286  0.06145428     0.27400
C1414       C  0.13837505  0.58571492  0.06185715     0.27400
C1415       C  0.08530003  0.52611785  0.10538297     0.27400
C1416       C  0.08465141  0.55707441  0.10562561     0.27400
C1417       C  0.12977196  0.52492964  0.07748040     0.36000
C1418       C  0.10924003  0.51407649  0.09458054     0.36000
C1419       C  0.12844672  0.60519727  0.07816672     0.36000
C1420       C  0.10733867  0.59393362  0.09503887     0.36000
C1421       C  0.14381960  0.56336676  0.04913365    -0.21500
C1422       C  0.14380705  0.58311255  0.04940111    -0.21500
C1423       C  0.06666198  0.52199690  0.11240937    -0.21500
C1424       C  0.06624581  0.54158827  0.11255846    -0.21500
C1425       C  0.13295728  0.50875462  0.08316377    -0.22500
C1426       C  0.11983742  0.50178285  0.09398295    -0.22500
C1427       C  0.12998334  0.62399529  0.08372935    -0.22500
C1428       C  0.11654570  0.61684970  0.09442108    -0.22500
C1429       C  0.13920874  0.53566102  0.06569229    -0.17900
C1430       C  0.13875323  0.60491292  0.06654031    -0.17900
C1431       C  0.09129456  0.57978047  0.10413299    -0.17900
C1432       C  0.09294602  0.51097443  0.10373278    -0.17900
H1433       H  0.14788747  0.55657821  0.04090422     0.15000
H1434       H  0.14783693  0.59451663  0.04141727     0.15000
H1435       H  0.05480978  0.50659540  0.11710091     0.15000
H1436       H  0.05398187  0.54422182  0.11736666     0.15000
H1437       H  0.14349700  0.50251754  0.07982717     0.13300
H1438       H  0.11817782  0.48902512  0.10060084     0.13300
H1439       H  0.13956143  0.64101793  0.08035821     0.13300
H1440       H  0.11373217  0.62730588  0.10093131     0.13300
H1441       H  0.13390698  0.56735953  0.07906763     0.26600
H1442       H  0.11193372  0.55580088  0.09725712     0.26600
N1443       N  0.50394057  0.71824475  0.02007409    -0.26900
N1444       N  0.49518228  0.72388500  0.02956281    -0.34700
C1445       C  0.48788291  0.70826616  0.03876885     0.01500
C1446       C  0.49228724  0.69183320  0.03500901     0.07500
C1447       C  0.50240516  0.69867533  0.02302842    -0.05600
H1448       H  0.47934722  0.70865368  0.04736568     0.08200
H1449       H  0.50813954  0.69006053  0.01688918     0.09400
Cu1450     Cu  0.49312856  0.75228633  0.02975333     0.44200
Cu1451     Cu  0.51689180  0.73780983  0.00365520     0.42000
Cu1452     Cu  0.51384883  0.78927037  0.00286545     0.43900
N1453       N  0.49369792  0.78205449  0.02914695    -0.34300
N1454       N  0.50122275  0.79587586  0.01927924    -0.28500
C1455       C  0.49936439  0.81374838  0.02201353    -0.04600
C1456       C  0.49033766  0.81102451  0.03425732     0.07600
C1457       C  0.48687600  0.79062181  0.03841124     0.01400
H1458       H  0.50435738  0.82771656  0.01558919     0.09000
H1459       H  0.47944739  0.78219235  0.04735646     0.08100
N1460       N  0.52740864  0.77926429  0.98837817    -0.35700
N1461       N  0.52853611  0.76087026  0.98866878    -0.27900
C1462       C  0.53862709  0.75983693  0.97787968    -0.03100
C1463       C  0.54427329  0.77849428  0.97042621     0.05500
C1464       C  0.53679339  0.79038015  0.97741719     0.03600
H1465       H  0.54191273  0.74657547  0.97573820     0.08700
H1466       H  0.53778525  0.80585386  0.97473712     0.07500
N1467       N  0.42969764  0.87037584  0.06327398    -0.36200
N1468       N  0.40967131  0.88692033  0.08121710    -0.56800
N1469       N  0.44941586  0.90602487  0.09743222    -0.36200
N1470       N  0.46845274  0.88753306  0.08026812    -0.56800
C1471       C  0.40814358  0.85898135  0.05942296     0.27400
C1472       C  0.43938239  0.85891409  0.05907104     0.27400
C1473       C  0.43504363  0.90792462  0.10532934     0.27400
C1474       C  0.46663408  0.90849761  0.10474074     0.27400
C1475       C  0.39480083  0.88063886  0.07147950     0.36000
C1476       C  0.40500945  0.89916727  0.08931688     0.36000
C1477       C  0.47585772  0.88090560  0.07016780     0.36000
C1478       C  0.48635255  0.89981187  0.08786354     0.36000
C1479       C  0.40421466  0.84032172  0.05249773    -0.21500
C1480       C  0.42392146  0.84026229  0.05228725    -0.21500
C1481       C  0.44343134  0.91208820  0.11777886    -0.21500
C1482       C  0.46339781  0.91248476  0.11739930    -0.21500
C1483       C  0.38077880  0.88908016  0.07332476    -0.22500
C1484       C  0.38725900  0.90085143  0.08462807    -0.22500
C1485       C  0.49856877  0.88918118  0.07127335    -0.22500
C1486       C  0.50522908  0.90117951  0.08248990    -0.22500
C1487       C  0.39205384  0.86521012  0.06183177    -0.17900
C1488       C  0.46193484  0.86513231  0.06092480    -0.17900
C1489       C  0.48546722  0.90789729  0.10017609    -0.17900
C1490       C  0.41507808  0.90697549  0.10147773    -0.17900
H1491       H  0.38869776  0.82786738  0.04816998     0.15000
H1492       H  0.42647901  0.82775863  0.04774191     0.15000
H1493       H  0.43597156  0.91460892  0.12626711     0.15000
H1494       H  0.47425816  0.91533964  0.12552627     0.15000
H1495       H  0.36696350  0.88652501  0.06732286     0.13300
H1496       H  0.37944948  0.90924905  0.08904448     0.13300
H1497       H  0.50909635  0.88630120  0.06485699     0.13300
H1498       H  0.52194451  0.90947276  0.08640654     0.13300
H1499       H  0.43781267  0.88602444  0.06757594     0.26600
H1500       H  0.44853807  0.90525195  0.08745002     0.26600
N1501       N  0.43075753  0.57026104  0.06429586    -0.36200
N1502       N  0.41290425  0.53187404  0.08150977    -0.56800
N1503       N  0.45316329  0.55280223  0.09675313    -0.36200
N1504       N  0.47015953  0.59212005  0.08035915    -0.56800
C1505       C  0.40899094  0.55941171  0.06089621     0.27400
C1506       C  0.43982114  0.59155877  0.06017544     0.27400
C1507       C  0.43971149  0.53568989  0.10460148     0.27400
C1508       C  0.47030381  0.56792812  0.10399679     0.27400
C1509       C  0.39718304  0.52360969  0.07222200     0.36000
C1510       C  0.40877894  0.51451000  0.08916678     0.36000
C1511       C  0.47683052  0.60700132  0.07062598     0.36000
C1512       C  0.48843331  0.59797246  0.08758380     0.36000
C1513       C  0.40427485  0.57385052  0.05429454    -0.21500
C1514       C  0.42375062  0.59414948  0.05383153    -0.21500
C1515       C  0.44872554  0.53970630  0.11688112    -0.21500
C1516       C  0.46803731  0.56008272  0.11650540    -0.21500
C1517       C  0.38319741  0.50086361  0.07389709    -0.22500
C1518       C  0.39052576  0.49510854  0.08465589    -0.22500
C1519       C  0.49944795  0.62223031  0.07160291    -0.22500
C1520       C  0.50681010  0.61650372  0.08235771    -0.22500
C1521       C  0.39344448  0.53669702  0.06333534    -0.17900
C1522       C  0.46232158  0.60854672  0.06177206    -0.17900
C1523       C  0.48831384  0.58828293  0.09952686    -0.17900
C1524       C  0.41973736  0.51637095  0.10091749    -0.17900
H1525       H  0.38841751  0.57019182  0.05028823     0.15000
H1526       H  0.42578142  0.60914682  0.04941864     0.15000
H1527       H  0.44201118  0.52914841  0.12527613     0.15000
H1528       H  0.47908167  0.56823506  0.12456105     0.15000
H1529       H  0.36875059  0.48971408  0.06820896     0.13300
H1530       H  0.38291135  0.47865189  0.08888411     0.13300
H1531       H  0.50946570  0.63634579  0.06540942     0.13300
H1532       H  0.52365415  0.62531251  0.08608450     0.13300
H1533       H  0.43935225  0.56304201  0.06820524     0.26600
H1534       H  0.45182053  0.55327592  0.08681479     0.26600
N1535       N  0.27644576  0.47925432  0.02778410    -0.26900
N1536       N  0.27111303  0.48865444  0.03705904    -0.34700
C1537       C  0.28805980  0.49847023  0.04542617     0.01500
C1538       C  0.30507675  0.49518990  0.04128401     0.07500
C1539       C  0.29711024  0.48292372  0.03001091    -0.05600
H1540       H  0.28836657  0.50842822  0.05348677     0.08200
H1541       H  0.30587572  0.47759469  0.02370236     0.09400
Cu1542     Cu  0.24243489  0.49046406  0.03726822     0.44200
Cu1543     Cu  0.25565471  0.46382797  0.01215638     0.42000
Cu1544     Cu  0.20397524  0.46672045  0.01125290     0.43900
N1545       N  0.21459289  0.49354935  0.03542852    -0.34300
N1546       N  0.19987255  0.48428420  0.02605500    -0.28500
C1547       C  0.18362910  0.48916710  0.02771915    -0.04600
C1548       C  0.18871736  0.50251262  0.03853659     0.07600
C1549       C  0.20842220  0.50489186  0.04317397     0.01400
H1550       H  0.16943326  0.48376422  0.02141070     0.09000
H1551       H  0.21745523  0.51390909  0.05167995     0.08100
N1552       N  0.21329748  0.45154684  0.99740963    -0.35700
N1553       N  0.23173018  0.45048003  0.99772851    -0.27900
C1554       C  0.23217907  0.43917866  0.98736318    -0.03100
C1555       C  0.21304733  0.43264391  0.98017296     0.05500
C1556       C  0.20159782  0.44097248  0.98683282     0.03600
H1557       H  0.24565664  0.43621944  0.98524458     0.08700
H1558       H  0.18565831  0.43913010  0.98435313     0.07500
N1559       N  0.65008912  0.71752744  0.17386478    -0.26900
N1560       N  0.62941008  0.71229871  0.17119393    -0.34700
C1561       C  0.62379541  0.72439617  0.17865529     0.01500
C1562       C  0.64165173  0.73780584  0.18656609     0.07500
C1563       C  0.65810633  0.73311237  0.18317969    -0.05600
H1564       H  0.60782045  0.72344667  0.17822776     0.08200
H1565       H  0.67457296  0.74018685  0.18733097     0.09400
Cu1566     Cu  0.60858836  0.68846257  0.15810035     0.44200
Cu1567     Cu  0.66672515  0.70347200  0.16478833     0.42000
Cu1568     Cu  0.63223871  0.66044042  0.14216955     0.43900
N1569       N  0.59103291  0.66324416  0.14498541    -0.34300
N1570       N  0.59991568  0.65276384  0.13917747    -0.28500
C1571       C  0.58502648  0.63773120  0.13096819    -0.04600
C1572       C  0.56571624  0.63878665  0.13158428     0.07600
C1573       C  0.57012718  0.65513769  0.14065554     0.01400
H1574       H  0.58834270  0.62730157  0.12474584     0.09000
H1575       H  0.55909644  0.66078484  0.14394502     0.08100
N1576       N  0.66553456  0.67164592  0.14496081    -0.35700
N1577       N  0.67857871  0.68735294  0.15317357    -0.27900
C1578       C  0.69934487  0.69056239  0.15224884    -0.03100
C1579       C  0.69922246  0.67606565  0.14298521     0.05500
C1580       C  0.67743405  0.66448709  0.13860674     0.03600
H1581       H  0.71329625  0.70236129  0.15801585     0.08700
H1582       H  0.67059984  0.65190100  0.13117143     0.07500
N1583       N  0.06051859  0.71366648  0.17279407    -0.26900
N1584       N  0.07451646  0.70621955  0.17158971    -0.34700
C1585       C  0.09141779  0.71716529  0.17991366     0.01500
C1586       C  0.08803291  0.73236135  0.18666787     0.07500
C1587       C  0.06817699  0.72956897  0.18189380    -0.05600
H1588       H  0.10534562  0.71445746  0.18079559     0.08200
H1589       H  0.05967852  0.73821884  0.18483137     0.09400
Cu1590     Cu  0.07065319  0.68183036  0.15864563     0.44200
Cu1591     Cu  0.03214783  0.70288877  0.16172969     0.42000
Cu1592     Cu  0.02437340  0.66308726  0.13718320     0.43900
N1593       N  0.06223171  0.65679371  0.14519563    -0.34300
N1594       N  0.04487458  0.64971671  0.13748249    -0.28500
C1595       C  0.04355723  0.63349424  0.12990767    -0.04600
C1596       C  0.06102579  0.63011390  0.13291574     0.07600
C1597       C  0.07258224  0.64533068  0.14266520     0.01400
H1598       H  0.03087120  0.62500776  0.12264575     0.09000
H1599       H  0.08777529  0.64846070  0.14733767     0.08100
N1600       N  0.00533703  0.67800852  0.13860536    -0.35700
N1601       N  0.00748051  0.69195133  0.14786004    -0.27900
C1602       C  0.99166585  0.69746661  0.14642049    -0.03100
C1603       C  0.97905944  0.68651363  0.13566841     0.05500
C1604       C  0.98833162  0.67444883  0.13094744     0.03600
H1605       H  0.98960568  0.70863571  0.15272950     0.08700
H1606       H  0.98260392  0.66318386  0.12282174     0.07500
N1607       N  0.79998388  0.66411907  0.11621692    -0.26900
N1608       N  0.78531361  0.65303385  0.10702687    -0.34700
C1609       C  0.76611781  0.65229605  0.10974554     0.01500
C1610       C  0.76859556  0.66340314  0.12120984     0.07500
C1611       C  0.79038725  0.67088385  0.12500462    -0.05600
H1612       H  0.75147437  0.64438786  0.10368184     0.08200
H1613       H  0.79849384  0.68010376  0.13364963     0.09400
Cu1614     Cu  0.79091573  0.63887760  0.09098996     0.44200
Cu1615     Cu  0.83198756  0.66848848  0.11651733     0.42000
Cu1616     Cu  0.84212000  0.64035618  0.08976537     0.43900
N1617       N  0.79949492  0.62555876  0.07574724    -0.34300
N1618       N  0.81871517  0.62614911  0.07530114    -0.28500
C1619       C  0.81968147  0.61618785  0.06444104    -0.04600
C1620       C  0.79999333  0.60888423  0.05766977     0.07600
C1621       C  0.78758277  0.61510890  0.06519495     0.01400
H1622       H  0.83346664  0.61392290  0.06190879     0.09000
H1623       H  0.77109327  0.61225705  0.06317698     0.08100
N1624       N  0.86449786  0.65724771  0.10437546    -0.35700
N1625       N  0.86144658  0.66785547  0.11398432    -0.27900
C1626       C  0.87994890  0.67730273  0.12136267    -0.03100
C1627       C  0.89537261  0.67250918  0.11604431     0.05500
C1628       C  0.88474984  0.65955802  0.10537214     0.03600
H1629       H  0.88202307  0.68701259  0.12991787     0.08700
H1630       H  0.89093134  0.65185955  0.09884465     0.07500
O1631       O  0.18449741  0.85068008  0.22957832    -0.72500
O1632       O  0.14386899  0.80935465  0.25720545    -0.73500
O1633       O  0.18472754  0.85105672  0.25695067    -0.62100
O1634       O  0.14369038  0.80899686  0.22984648    -0.70500
O1635       O  0.16255500  0.79122477  0.23012525    -0.70100
O1636       O  0.20361954  0.83330971  0.25691288    -0.61400
O1637       O  0.16298765  0.79185360  0.25723680    -0.73900
O1638       O  0.20310125  0.83264471  0.22980871    -0.72600
Cu1639     Cu  0.16351672  0.83065125  0.24339793     1.04600
Cu1640     Cu  0.18369815  0.81166287  0.24352648     1.04300
C1641       C  0.20042328  0.84825998  0.22541063     0.93700
C1642       C  0.14687702  0.79385267  0.26148175     0.92800
C1643       C  0.20083322  0.84895274  0.26114024     0.84900
C1644       C  0.14656629  0.79332041  0.22575647     0.91200
C1645       C  0.11702113  0.74316199  0.20368435    -0.20900
C1646       C  0.10263426  0.74799168  0.19677904    -0.08900
C1647       C  0.10272955  0.76783686  0.19955553     0.29900
C1648       C  0.11684233  0.78231897  0.20907662    -0.20900
C1649       C  0.13136010  0.77754679  0.21589950    -0.09000
C1650       C  0.13126593  0.75771667  0.21309738     0.29900
F1651       F  0.14475234  0.75216160  0.21950564    -0.19500
H1652       H  0.11719161  0.72794591  0.20188983     0.18300
H1653       H  0.11668766  0.79753830  0.21093189     0.18300
F1654       F  0.08988288  0.77378762  0.19280006    -0.19500
C1655       C  0.92321121  0.68365618  0.13397189    -0.20900
C1656       C  0.91788586  0.67875351  0.12087564    -0.08900
C1657       C  0.93397854  0.67890351  0.11257661     0.29900
C1658       C  0.95411041  0.68227012  0.11745518    -0.20900
C1659       C  0.95891378  0.68593699  0.13062957    -0.09000
C1660       C  0.94357418  0.68731004  0.13883050     0.29900
F1661       F  0.94757021  0.69081053  0.15164388    -0.19500
H1662       H  0.91126887  0.68378894  0.14058285     0.18300
H1663       H  0.96591869  0.68175701  0.11088532     0.18300
F1664       F  0.93046304  0.67588029  0.09970907    -0.19500
C1665       C  0.71228438  0.65275033  0.13229041    -0.20900
C1666       C  0.71765290  0.67281479  0.13846358    -0.08900
C1667       C  0.74031626  0.68935395  0.13971599     0.29900
C1668       C  0.75697051  0.68596520  0.13448002    -0.20900
C1669       C  0.75131670  0.66624957  0.12779343    -0.09000
C1670       C  0.72877560  0.64949961  0.12697810     0.29900
F1671       F  0.72255329  0.62973468  0.12118000    -0.19500
H1672       H  0.69516880  0.63934658  0.13149570     0.18300
H1673       H  0.77423706  0.69910371  0.13523134     0.18300
F1674       F  0.74643284  0.70911697  0.14546583    -0.19500
C1675       C  0.54070143  0.60509111  0.11859700    -0.20900
C1676       C  0.54531917  0.62564425  0.12380840    -0.08900
C1677       C  0.53070458  0.63356833  0.12113649     0.29900
C1678       C  0.51200429  0.62113645  0.11340103    -0.20900
C1679       C  0.50769822  0.60081865  0.10812676    -0.09000
C1680       C  0.52208226  0.59279013  0.11079556     0.29900
F1681       F  0.51825722  0.57323211  0.10567652    -0.19500
H1682       H  0.55150731  0.59847135  0.12053931     0.18300
H1683       H  0.50101591  0.62751435  0.11131774     0.18300
F1684       F  0.53483506  0.65366058  0.12549929    -0.19500
C1685       C  0.34616381  0.51013908  0.03914433    -0.20900
C1686       C  0.32767149  0.50509202  0.04695799    -0.08900
C1687       C  0.33113581  0.51048725  0.06014695     0.29900
C1688       C  0.35261737  0.52124843  0.06524859    -0.20900
C1689       C  0.37100846  0.52650415  0.05741229    -0.09000
C1690       C  0.36770992  0.52079779  0.04432717     0.29900
F1691       F  0.38528515  0.52532949  0.03664987    -0.19500
H1692       H  0.34402079  0.50619827  0.02898036     0.18300
H1693       H  0.35494406  0.52519927  0.07542208     0.18300
F1694       F  0.31378170  0.50484057  0.06824319    -0.19500
C1695       C  0.47990357  0.84051505  0.03420944    -0.20900
C1696       C  0.48452088  0.82598727  0.04116721    -0.08900
C1697       C  0.48277896  0.82544408  0.05469781     0.29900
C1698       C  0.47580213  0.83852116  0.06098712    -0.20900
C1699       C  0.47060756  0.85248737  0.05399180    -0.09000
C1700       C  0.47293667  0.85363532  0.04055523     0.29900
F1701       F  0.46810351  0.86714289  0.03359581    -0.19500
H1702       H  0.48106039  0.84128587  0.02381560     0.18300
H1703       H  0.47417388  0.83757864  0.07137334     0.18300
F1704       F  0.48799935  0.81251957  0.06193864    -0.19500
C1705       C  0.48162255  0.65166327  0.03509017    -0.20900
C1706       C  0.48590723  0.67083663  0.04195503    -0.08900
C1707       C  0.48313582  0.66944367  0.05543256     0.29900
C1708       C  0.47540704  0.64913917  0.06173857    -0.20900
C1709       C  0.47056782  0.62994028  0.05481308    -0.09000
C1710       C  0.47398054  0.63134865  0.04145749     0.29900
F1711       F  0.46990348  0.61307421  0.03461320    -0.19500
H1712       H  0.48366650  0.65223563  0.02474520     0.18300
H1713       H  0.47319724  0.64834373  0.07208597     0.18300
F1714       F  0.48826864  0.68770721  0.06260557    -0.19500
C1715       C  0.08799656  0.59576212  0.12494527    -0.20900
C1716       C  0.08082363  0.58944793  0.11224218    -0.08900
C1717       C  0.06583978  0.59494302  0.10676322     0.29900
C1718       C  0.05895293  0.60752957  0.11370860    -0.20900
C1719       C  0.06696024  0.61496973  0.12624032    -0.09000
C1720       C  0.08114959  0.60841675  0.13193559     0.29900
F1721       F  0.08861866  0.61432239  0.14417215    -0.19500
H1722       H  0.09959357  0.59160433  0.12925952     0.18300
H1723       H  0.04806876  0.61220292  0.10899676     0.18300
F1724       F  0.05871671  0.58899060  0.09446270    -0.19500
C1725       C  0.17445220  0.54124357  0.05600189    -0.20900
C1726       C  0.15139524  0.52754389  0.05774555    -0.08900
C1727       C  0.14038634  0.50609925  0.05231024     0.29900
C1728       C  0.15249615  0.49830083  0.04558235    -0.20900
C1729       C  0.17572158  0.51167266  0.04435003    -0.09000
C1730       C  0.18656573  0.53340758  0.04938678     0.29900
F1731       F  0.20885867  0.54710814  0.04785712    -0.19500
H1732       H  0.18312562  0.55789032  0.06002207     0.18300
H1733       H  0.14386109  0.48152460  0.04175157     0.18300
F1734       F  0.11804459  0.49261163  0.05374331    -0.19500
C1735       C  0.34785282  0.84129706  0.03558012    -0.20900
C1736       C  0.32880279  0.82665674  0.04271789    -0.08900
C1737       C  0.33047182  0.82611347  0.05620494     0.29900
C1738       C  0.35098554  0.83900352  0.06229653    -0.20900
C1739       C  0.37017014  0.85292288  0.05513386    -0.09000
C1740       C  0.36842677  0.85433275  0.04173053     0.29900
F1741       F  0.38667190  0.86805001  0.03461762    -0.19500
H1742       H  0.34697269  0.84213795  0.02520653     0.18300
H1743       H  0.35200308  0.83792045  0.07265277     0.18300
F1744       F  0.31225319  0.81331982  0.06356421    -0.19500
C1745       C  0.15342326  0.65401820  0.04453924    -0.20900
C1746       C  0.17687289  0.66538193  0.04484472    -0.08900
C1747       C  0.18746240  0.65646797  0.05229584     0.29900
C1748       C  0.17486112  0.63693052  0.05934396    -0.20900
C1749       C  0.15156267  0.62586608  0.05913458    -0.09000
C1750       C  0.14083628  0.63444759  0.05167392     0.29900
F1751       F  0.11825020  0.62381066  0.05125437    -0.19500
H1752       H  0.14480420  0.66045945  0.03894803     0.18300
H1753       H  0.18329758  0.63029607  0.06496297     0.18300
F1754       F  0.20997591  0.66617067  0.05255030    -0.19500
C1755       C  0.22810453  0.89350717  0.19987037    -0.20900
C1756       C  0.24739722  0.89257956  0.19715624    -0.08900
C1757       C  0.25121512  0.87739313  0.20398739     0.29900
C1758       C  0.23577738  0.86309668  0.21302831    -0.20900
C1759       C  0.21627006  0.86367421  0.21562978    -0.09000
C1760       C  0.21262838  0.87920428  0.20899854     0.29900
F1761       F  0.19405582  0.88043269  0.21116173    -0.19500
H1762       H  0.22477731  0.90505926  0.19475378     0.18300
H1763       H  0.23932495  0.85168340  0.21813154     0.18300
F1764       F  0.27020584  0.87675686  0.20229054    -0.19500
C1765       C  0.33049183  0.08354892  0.14150336    -0.20900
C1766       C  0.33537900  0.08772879  0.12829372    -0.08900
C1767       C  0.33744258  0.07185004  0.12091620     0.29900
C1768       C  0.33559620  0.05296570  0.12673396    -0.20900
C1769       C  0.33111248  0.04906320  0.13991072    -0.09000
C1770       C  0.32829268  0.06434359  0.14727030     0.29900
F1771       F  0.32446132  0.06124303  0.16011832    -0.19500
H1772       H  0.32892114  0.09538639  0.14748554     0.18300
H1773       H  0.33742446  0.04115591  0.12084584     0.18300
F1774       F  0.34086520  0.07412516  0.10802428    -0.19500
C1775       C  0.41345595  0.93622275  0.11449394    -0.20900
C1776       C  0.40361758  0.91386722  0.11081218    -0.08900
C1777       C  0.38259762  0.89824422  0.11571218     0.29900
C1778       C  0.37133280  0.90507789  0.12390880    -0.20900
C1779       C  0.38083190  0.92759515  0.12739310    -0.09000
C1780       C  0.40227730  0.94310283  0.12274977     0.29900
F1781       F  0.41266279  0.96485763  0.12623060    -0.19500
H1782       H  0.42974861  0.94838569  0.11084201     0.18300
H1783       H  0.35489909  0.89273751  0.12724067     0.18300
F1784       F  0.37283262  0.87643627  0.11237508    -0.19500
C1785       C  0.33283480  0.26953810  0.14711877    -0.20900
C1786       C  0.33730850  0.28769088  0.13919186    -0.08900
C1787       C  0.34345243  0.28761933  0.12631556     0.29900
C1788       C  0.34577297  0.27017344  0.12164711    -0.20900
C1789       C  0.34224862  0.25240042  0.12965205    -0.09000
C1790       C  0.33536456  0.25205676  0.14244709     0.29900
F1791       F  0.33191025  0.23541334  0.15061384    -0.19500
H1792       H  0.32803741  0.26920920  0.15706554     0.18300
H1793       H  0.35035372  0.27070346  0.11165181     0.18300
F1794       F  0.34681846  0.30416623  0.11807646    -0.19500
C1795       C  0.40605420  0.46575581  0.12115388    -0.20900
C1796       C  0.38599794  0.46122671  0.12709953    -0.08900
C1797       C  0.37775951  0.47568033  0.12476530     0.29900
C1798       C  0.38904003  0.49374157  0.11639769    -0.20900
C1799       C  0.40867980  0.49778293  0.11026472    -0.09000
C1800       C  0.41732501  0.48387451  0.11282254     0.29900
F1801       F  0.43637766  0.48755598  0.10703457    -0.19500
H1802       H  0.41300486  0.45517169  0.12286864     0.18300
H1803       H  0.38225246  0.50443369  0.11449902     0.18300
F1804       F  0.35835585  0.47194345  0.13005491    -0.19500
C1805       C  0.73117217  0.08631022  0.12802266    -0.20900
C1806       C  0.75226883  0.08845461  0.12734255    -0.08900
C1807       C  0.75596660  0.07282929  0.13376402     0.29900
C1808       C  0.73833295  0.05460850  0.14007703    -0.20900
C1809       C  0.71688237  0.05187958  0.14018107    -0.09000
C1810       C  0.71374465  0.06845804  0.13450738     0.29900
F1811       F  0.69385051  0.06756490  0.13523938    -0.19500
H1812       H  0.72813522  0.09853827  0.12349975     0.18300
H1813       H  0.74127199  0.04219279  0.14441324     0.18300
F1814       F  0.77622082  0.07444763  0.13332122    -0.19500
C1815       C  0.50964777  0.89874541  0.11351219    -0.20900
C1816       C  0.50480871  0.91476140  0.10891473    -0.08900
C1817       C  0.51919307  0.93726146  0.11194486     0.29900
C1818       C  0.53827273  0.94361509  0.11938158    -0.20900
C1819       C  0.54329319  0.92762755  0.12396794    -0.09000
C1820       C  0.52871172  0.90503673  0.12091714     0.29900
F1821       F  0.53326443  0.88906411  0.12456676    -0.19500
H1822       H  0.49883817  0.88134635  0.11108705     0.18300
H1823       H  0.54908820  0.96109320  0.12157317     0.18300
F1824       F  0.51502250  0.95308980  0.10745358    -0.19500
C1825       C  0.93497693  0.25458394  0.11296266    -0.20900
C1826       C  0.91876557  0.23743910  0.12065729    -0.08900
C1827       C  0.92296182  0.23730150  0.13393054     0.29900
C1828       C  0.94254167  0.25458439  0.13935797    -0.20900
C1829       C  0.95798963  0.27232134  0.13170984    -0.09000
C1830       C  0.95431772  0.27187850  0.11839496     0.29900
F1831       F  0.96941504  0.28819418  0.11058780    -0.19500
H1832       H  0.93259709  0.25485671  0.10268442     0.18300
H1833       H  0.94509644  0.25467148  0.14964682     0.18300
F1834       F  0.90773365  0.22132689  0.14182772    -0.19500
C1835       C  0.08605682  0.47102707  0.13035991    -0.20900
C1836       C  0.06924060  0.45056303  0.12534971    -0.08900
C1837       C  0.05914887  0.45057232  0.11354788     0.29900
C1838       C  0.06627883  0.47047230  0.10685420    -0.20900
C1839       C  0.08339490  0.49064280  0.11177542    -0.09000
C1840       C  0.09306350  0.49089768  0.12364995     0.29900
F1841       F  0.10987778  0.51027558  0.12848021    -0.19500
H1842       H  0.09400690  0.47169636  0.13943323     0.18300
H1843       H  0.05893955  0.47008746  0.09759111     0.18300
F1844       F  0.04321585  0.43138777  0.10805945    -0.19500
C1845       C  0.62417407  0.76466951  0.21213540    -0.20900
C1846       C  0.64457681  0.78350215  0.21554581    -0.08900
C1847       C  0.66419431  0.78699887  0.20945899     0.29900
C1848       C  0.66316695  0.77200382  0.20011483    -0.20900
C1849       C  0.64265591  0.75335863  0.19662784    -0.09000
C1850       C  0.62315929  0.74974568  0.20285983     0.29900
F1851       F  0.60308925  0.73142256  0.20035679    -0.19500
H1852       H  0.60880908  0.76127251  0.21674142     0.18300
H1853       H  0.67842745  0.77519137  0.19546669     0.18300
F1854       F  0.68433302  0.80490471  0.21241414    -0.19500
C1855       C  0.62008710  0.86311379  0.21220504    -0.20900
C1856       C  0.64093929  0.86643394  0.21601712    -0.08900
C1857       C  0.66031832  0.88439543  0.21065926     0.29900
C1858       C  0.65872993  0.89856429  0.20173584    -0.20900
C1859       C  0.63788107  0.89524657  0.19791594    -0.09000
C1860       C  0.61849952  0.87733570  0.20333147     0.29900
F1861       F  0.59796238  0.87381853  0.20043394    -0.19500
H1862       H  0.60485556  0.84959958  0.21622940     0.18300
H1863       H  0.67395962  0.91203367  0.19770823     0.18300
F1864       F  0.68087092  0.88834408  0.21397036    -0.19500
C1865       C  0.10562441  0.33373159  0.19763129    -0.20900
C1866       C  0.10513363  0.35347179  0.19579487    -0.08900
C1867       C  0.11907292  0.37219783  0.20334417     0.29900
C1868       C  0.13350487  0.37129178  0.21230648    -0.20900
C1869       C  0.13431589  0.35170893  0.21405756    -0.09000
C1870       C  0.12007737  0.33279338  0.20665980     0.29900
F1871       F  0.12033520  0.31353630  0.20795484    -0.19500
H1872       H  0.09508698  0.31909895  0.19190673     0.18300
H1873       H  0.14388336  0.38597274  0.21803658     0.18300
F1874       F  0.11831445  0.39123080  0.20239947    -0.19500
C1875       C  0.21846600  0.33564714  0.20914538    -0.20900
C1876       C  0.22126681  0.35486612  0.21532177    -0.08900
C1877       C  0.24002458  0.37559652  0.21210882     0.29900
C1878       C  0.25544981  0.37693414  0.20304117    -0.20900
C1879       C  0.25279114  0.35778212  0.19689312    -0.09000
C1880       C  0.23398743  0.33701628  0.20002488     0.29900
F1881       F  0.23019914  0.31805093  0.19411502    -0.19500
H1882       H  0.20414568  0.31949398  0.21131034     0.18300
H1883       H  0.26977695  0.39313327  0.20102379     0.18300
F1884       F  0.24380174  0.39472523  0.21782667    -0.19500
C1885       C  0.11726901  0.74334583  0.28327761    -0.20900
C1886       C  0.10099214  0.74659344  0.28924297    -0.08900
C1887       C  0.10019565  0.76587293  0.28606466     0.29900
C1888       C  0.11521473  0.78121525  0.27711862    -0.20900
C1889       C  0.13143465  0.77784251  0.27120839    -0.09000
C1890       C  0.13231849  0.75868975  0.27445792     0.29900
F1891       F  0.14744870  0.75440358  0.26897023    -0.19500
H1892       H  0.11835080  0.72868877  0.28524511     0.18300
H1893       H  0.11416315  0.79583176  0.27485270     0.18300
F1894       F  0.08526699  0.77027035  0.29167368    -0.19500
C1895       C  0.94052622  0.65473823  0.36327107    -0.20900
C1896       C  0.94829335  0.66632430  0.35157791    -0.08900
C1897       C  0.93733062  0.67690478  0.34642578     0.29900
C1898       C  0.91920176  0.67592702  0.35288737    -0.20900
C1899       C  0.91143772  0.66433259  0.36459070    -0.09000
C1900       C  0.92239946  0.65368867  0.36970749     0.29900
F1901       F  0.91545636  0.64171206  0.38075498    -0.19500
H1902       H  0.94856417  0.64649093  0.36758888     0.18300
H1903       H  0.91126069  0.68433736  0.34865520     0.18300
F1904       F  0.94362363  0.68772327  0.33498238    -0.19500
C1905       C  0.62722090  0.75482505  0.28728043    -0.20900
C1906       C  0.64634588  0.75314059  0.28912216    -0.08900
C1907       C  0.66564028  0.76742140  0.28192639     0.29900
C1908       C  0.66544661  0.78256552  0.27310565    -0.20900
C1909       C  0.64607396  0.78368957  0.27112263    -0.09000
C1910       C  0.62696790  0.76968228  0.27838931     0.29900
F1911       F  0.60791319  0.77032766  0.27700765    -0.19500
H1912       H  0.61213577  0.74460096  0.29267561     0.18300
H1913       H  0.68038808  0.79309934  0.26760324     0.18300
F1914       F  0.68461997  0.76663997  0.28308699    -0.19500
C1915       C  0.73840139  0.67784988  0.34353053    -0.20900
C1916       C  0.72362658  0.68041716  0.35151638    -0.08900
C1917       C  0.72570633  0.67985347  0.36492004     0.29900
C1918       C  0.74173077  0.67587970  0.37023553    -0.20900
C1919       C  0.75587581  0.67214772  0.36232225    -0.09000
C1920       C  0.75434306  0.67355764  0.34885727     0.29900
F1921       F  0.76725256  0.66954840  0.34081261    -0.19500
H1922       H  0.73683813  0.67803278  0.33316391     0.18300
H1923       H  0.74285733  0.67550225  0.38061210     0.18300
F1924       F  0.71213280  0.68304199  0.37290077    -0.19500
C1925       C  0.52882337  0.60466197  0.37968685    -0.20900
C1926       C  0.50816764  0.59914104  0.37435542    -0.08900
C1927       C  0.50707181  0.60429288  0.36140804     0.29900
C1928       C  0.52650805  0.61517917  0.35398874    -0.20900
C1929       C  0.54732631  0.62092845  0.35931848    -0.09000
C1930       C  0.54824062  0.61538253  0.37228293     0.29900
F1931       F  0.56790359  0.62105414  0.37804256    -0.19500
H1932       H  0.52989665  0.60084080  0.38967637     0.18300
H1933       H  0.52524706  0.61909363  0.34405141     0.18300
F1934       F  0.48725120  0.59913160  0.35603231    -0.19500
C1935       C  0.36465064  0.50960245  0.43550089    -0.20900
C1936       C  0.37253608  0.52879176  0.42788005    -0.08900
C1937       C  0.35938736  0.53862155  0.42644067     0.29900
C1938       C  0.33861044  0.52933622  0.43245472    -0.20900
C1939       C  0.33045488  0.51002128  0.44005671    -0.09000
C1940       C  0.34380701  0.50027687  0.44158788     0.29900
F1941       F  0.33640215  0.48126691  0.44848589    -0.19500
H1942       H  0.37448503  0.50163839  0.43652035     0.18300
H1943       H  0.32891320  0.53737035  0.43113378     0.18300
F1944       F  0.36644321  0.55690858  0.41890092    -0.19500
C1945       C  0.06032819  0.60505648  0.36787557    -0.20900
C1946       C  0.06639132  0.60936204  0.35483583    -0.08900
C1947       C  0.08094522  0.60287061  0.34968625     0.29900
C1948       C  0.08967768  0.59283881  0.35758764    -0.20900
C1949       C  0.08414138  0.58930860  0.37069898    -0.09000
C1950       C  0.06916751  0.59521072  0.37575485     0.29900
F1951       F  0.06345257  0.59181020  0.38838980    -0.19500
H1952       H  0.04925477  0.60995491  0.37211317     0.18300
H1953       H  0.10110530  0.58820437  0.35355817     0.18300
F1954       F  0.08655405  0.60600740  0.33703528    -0.19500
C1955       C  0.13882349  0.63607852  0.43156031    -0.20900
C1956       C  0.15087858  0.62747604  0.42551037    -0.08900
C1957       C  0.17420759  0.63931483  0.42618351     0.29900
C1958       C  0.18534973  0.65976928  0.43250916    -0.20900
C1959       C  0.17346761  0.66880457  0.43834530    -0.09000
C1960       C  0.14999438  0.65657023  0.43800484     0.29900
F1961       F  0.13786928  0.66478067  0.44336565    -0.19500
H1962       H  0.12079000  0.62705681  0.43109820     0.18300
H1963       H  0.20338190  0.66860546  0.43277093     0.18300
F1964       F  0.18621700  0.63130371  0.42041845    -0.19500
C1965       C  0.17766507  0.54370474  0.42926028    -0.20900
C1966       C  0.15441160  0.53082207  0.42830841    -0.08900
C1967       C  0.14293914  0.51077358  0.43523220     0.29900
C1968       C  0.15478995  0.50317496  0.44246043    -0.20900
C1969       C  0.17820010  0.51545632  0.44279871    -0.09000
C1970       C  0.18949618  0.53617654  0.43646319     0.29900
F1971       F  0.21199548  0.54920930  0.43726917    -0.19500
H1972       H  0.18667347  0.55945033  0.42420902     0.18300
H1973       H  0.14574296  0.48730168  0.44736700     0.18300
F1974       F  0.12035488  0.49847047  0.43481675    -0.19500
C1975       C  0.49934616  0.66178612  0.44032650    -0.20900
C1976       C  0.48506310  0.67047585  0.44143879    -0.08900
C1977       C  0.46318375  0.65795270  0.43662091     0.29900
C1978       C  0.45619796  0.63775032  0.43034416    -0.20900
C1979       C  0.47070317  0.62947666  0.42885546    -0.09000
C1980       C  0.49225181  0.64144373  0.43411920     0.29900
F1981       F  0.50657834  0.63372498  0.43295316    -0.19500
H1982       H  0.51624083  0.67101036  0.44395609     0.18300
H1983       H  0.43946559  0.62863475  0.42644432     0.18300
F1984       F  0.44837452  0.66499559  0.43808662    -0.19500
C1985       C  0.49056528  0.86335804  0.43677351    -0.20900
C1986       C  0.46895103  0.85287491  0.43159774    -0.08900
C1987       C  0.45475632  0.82989732  0.43358185     0.29900
C1988       C  0.46251188  0.81750209  0.43997574    -0.20900
C1989       C  0.48451041  0.82772185  0.44457509    -0.09000
C1990       C  0.49836726  0.85094382  0.44317582     0.29900
F1991       F  0.51981694  0.86151870  0.44729589    -0.19500
H1992       H  0.50165894  0.88108498  0.43543715     0.18300
H1993       H  0.45134860  0.79975246  0.44113025     0.18300
F1994       F  0.43361724  0.81927934  0.42892063    -0.19500
C1995       C  0.36107998  0.82982451  0.42890800    -0.20900
C1996       C  0.37107645  0.85303172  0.42849624    -0.08900
C1997       C  0.36027575  0.86331388  0.43414929     0.29900
C1998       C  0.33940292  0.85032075  0.43991764    -0.20900
C1999       C  0.32899298  0.82696702  0.43994087    -0.09000
C2000       C  0.34020059  0.81683308  0.43453210     0.29900
F2001       F  0.33116152  0.79440141  0.43476512    -0.19500
H2002       H  0.36932329  0.82174878  0.42459775     0.18300
H2003       H  0.33107830  0.85847097  0.44400307     0.18300
F2004       F  0.36968725  0.88579364  0.43379670    -0.19500
C2005       C  0.23667220  0.86521890  0.27326709    -0.20900
C2006       C  0.21661389  0.86478307  0.27079698    -0.08900
C2007       C  0.21219586  0.87971718  0.27749169     0.29900
C2008       C  0.22754512  0.89461420  0.28645780    -0.20900
C2009       C  0.24747987  0.89484588  0.28899664    -0.09000
C2010       C  0.25196930  0.88006383  0.28220188     0.29900
F2011       F  0.27144363  0.88033687  0.28383315    -0.19500
H2012       H  0.24073110  0.85419444  0.26814695     0.18300
H2013       H  0.22362288  0.90572066  0.29159100     0.18300
F2014       F  0.19291910  0.87972844  0.27557278    -0.19500
C2015       C  0.31185852  0.05783585  0.34515142    -0.20900
C2016       C  0.32930184  0.05328956  0.34648141    -0.08900
C2017       C  0.34836391  0.06837060  0.35358289     0.29900
C2018       C  0.34912166  0.08638427  0.35990685    -0.20900
C2019       C  0.33143774  0.09042329  0.35892492    -0.09000
C2020       C  0.31298755  0.07637494  0.35122021     0.29900
F2021       F  0.29563892  0.07996358  0.35005910    -0.19500
H2022       H  0.29704067  0.04673882  0.33972530     0.18300
H2023       H  0.36377712  0.09742962  0.36549807     0.18300
F2024       F  0.36656292  0.06611551  0.35434432    -0.19500
C2025       C  0.40157097  0.91215117  0.36044468    -0.20900
C2026       C  0.40604469  0.91884084  0.37336780    -0.08900
C2027       C  0.39957020  0.93347459  0.37827305     0.29900
C2028       C  0.38816343  0.94073331  0.37048769    -0.20900
C2029       C  0.38281311  0.93338923  0.35769484    -0.09000
C2030       C  0.38998858  0.91932081  0.35263599     0.29900
F2031       F  0.38596009  0.91263924  0.34016622    -0.19500
H2032       H  0.40658378  0.90095041  0.35652333     0.18300
H2033       H  0.38281900  0.95150978  0.37464298     0.18300
F2034       F  0.40375968  0.94022132  0.39072978    -0.19500
C2035       C  0.22953025  0.33561996  0.28715692    -0.20900
C2036       C  0.24855774  0.35623068  0.29008453    -0.08900
C2037       C  0.25178687  0.37537132  0.28355362     0.29900
C2038       C  0.23643231  0.37386220  0.27438265    -0.20900
C2039       C  0.21750956  0.35330430  0.27133181    -0.09000
C2040       C  0.21408144  0.33411307  0.27792648     0.29900
F2041       F  0.19580113  0.31392920  0.27556014    -0.19500
H2042       H  0.22648071  0.32064168  0.29209801     0.18300
H2043       H  0.23970752  0.38892606  0.26944857     0.18300
F2044       F  0.27025127  0.39555088  0.28555988    -0.19500
C2045       C  0.33452740  0.27142175  0.34183179    -0.20900
C2046       C  0.33075974  0.28525602  0.34993840    -0.08900
C2047       C  0.33055208  0.28243582  0.36331985     0.29900
C2048       C  0.33429735  0.26615831  0.36850517    -0.20900
C2049       C  0.33852477  0.25249071  0.36047368    -0.09000
C2050       C  0.33863377  0.25528731  0.34702944     0.29900
F2051       F  0.34364271  0.24318757  0.33892408    -0.19500
H2052       H  0.33511778  0.27368922  0.33149475     0.18300
H2053       H  0.33370595  0.26418501  0.37885572     0.18300
F2054       F  0.32640098  0.29523563  0.37138851    -0.19500
C2055       C  0.39169529  0.45873561  0.36974042    -0.20900
C2056       C  0.38497793  0.46018140  0.35718488    -0.08900
C2057       C  0.39018276  0.48118553  0.35235693     0.29900
C2058       C  0.40148988  0.50017670  0.36010388    -0.20900
C2059       C  0.40753314  0.49841022  0.37273701    -0.09000
C2060       C  0.40277883  0.47762308  0.37746466     0.29900
F2061       F  0.40838993  0.47556813  0.38968942    -0.19500
H2062       H  0.38775116  0.44283240  0.37379046     0.18300
H2063       H  0.40511879  0.51619808  0.35637236     0.18300
F2064       F  0.38451431  0.48342683  0.34018647    -0.19500
C2065       C  0.65915797  0.89551403  0.28761950    -0.20900
C2066       C  0.63909505  0.89540757  0.28947861    -0.08900
C2067       C  0.62043438  0.88087569  0.28199412     0.29900
C2068       C  0.62183284  0.86663934  0.27305813    -0.20900
C2069       C  0.64183508  0.86661938  0.27125223    -0.09000
C2070       C  0.66056510  0.88127415  0.27864583     0.29900
F2071       F  0.68012238  0.88156903  0.27743403    -0.19500
H2072       H  0.67374388  0.90636273  0.29329725     0.18300
H2073       H  0.60721779  0.85579983  0.26738685     0.18300
F2074       F  0.60096528  0.88080228  0.28296629    -0.19500
C2075       C  0.71346657  0.06750546  0.35371336    -0.20900
C2076       C  0.71751596  0.05202304  0.34737370    -0.08900
C2077       C  0.73963850  0.05636480  0.34685156     0.29900
C2078       C  0.75680477  0.07504052  0.35306525    -0.20900
C2079       C  0.75228104  0.08955115  0.36000225    -0.09000
C2080       C  0.73054773  0.08593689  0.36001993     0.29900
F2081       F  0.72582317  0.10039222  0.36599144    -0.19500
H2082       H  0.69698503  0.06539429  0.35397067     0.18300
H2083       H  0.77354703  0.07771815  0.35284819     0.18300
F2084       F  0.74480743  0.04237326  0.34077263    -0.19500
C2085       C  0.52729582  0.93545056  0.38078817    -0.20900
C2086       C  0.50621223  0.91940402  0.37625161    -0.08900
C2087       C  0.50402482  0.91067155  0.36382778     0.29900
C2088       C  0.52284155  0.91753258  0.35613826    -0.20900
C2089       C  0.54406333  0.93342109  0.36066624    -0.09000
C2090       C  0.54613280  0.94254327  0.37305602     0.29900
F2091       F  0.56637459  0.95750998  0.37795474    -0.19500
H2092       H  0.52915129  0.94216162  0.39040980     0.18300
H2093       H  0.52081504  0.91041971  0.34662152     0.18300
F2094       F  0.48371561  0.89511397  0.35928893    -0.19500
C2095       C  0.10034443  0.33352922  0.28358036    -0.20900
C2096       C  0.10149159  0.35394950  0.28602880    -0.08900
C2097       C  0.11718511  0.37298351  0.27924094     0.29900
C2098       C  0.13178272  0.37168373  0.27058984    -0.20900
C2099       C  0.13108529  0.35143316  0.26835633    -0.09000
C2100       C  0.11492615  0.33220334  0.27481769     0.29900
F2101       F  0.11341267  0.31221655  0.27288772    -0.19500
H2102       H  0.08843564  0.31859035  0.28863991     0.18300
H2103       H  0.14365239  0.38670215  0.26556326     0.18300
F2104       F  0.11821903  0.39284530  0.28066883    -0.19500
C2105       C  0.95415488  0.27537211  0.36562555    -0.20900
C2106       C  0.95643244  0.27522361  0.35222783    -0.08900
C2107       C  0.93975311  0.25750682  0.34506166     0.29900
C2108       C  0.92057399  0.24090338  0.35121965    -0.20900
C2109       C  0.91782514  0.24159104  0.36461513    -0.09000
C2110       C  0.93523812  0.25874675  0.37179401     0.29900
F2111       F  0.93426573  0.25958303  0.38479917    -0.19500
H2112       H  0.96707063  0.28856015  0.37138952     0.18300
H2113       H  0.90758146  0.22794775  0.34539892     0.18300
F2114       F  0.94135299  0.25687933  0.33206952    -0.19500
C2115       C  0.06603781  0.45177174  0.37117243    -0.20900
C2116       C  0.07343193  0.45270375  0.35845758    -0.08900
C2117       C  0.08836249  0.47367826  0.35305797     0.29900
C2118       C  0.09593209  0.49308766  0.36034898    -0.20900
C2119       C  0.08886873  0.49191623  0.37309681    -0.09000
C2120       C  0.07371028  0.47116411  0.37843963     0.29900
F2121       F  0.06655360  0.46969184  0.39074615    -0.19500
H2122       H  0.05467958  0.43597708  0.37565811     0.18300
H2123       H  0.10757027  0.50906332  0.35611878     0.18300
F2124       F  0.09546987  0.47558326  0.34072081    -0.19500
C2125       C  0.17926786  0.77770183  0.94769418    -0.20900
C2126       C  0.19148646  0.79984990  0.94337094    -0.08900
C2127       C  0.20930851  0.81553894  0.95099288     0.29900
C2128       C  0.21480016  0.80900504  0.96248728    -0.20900
C2129       C  0.20280028  0.78674758  0.96671078    -0.09000
C2130       C  0.18476751  0.77116232  0.95917320     0.29900
F2131       F  0.17275549  0.74938448  0.96253938    -0.19500
H2132       H  0.16562116  0.76512103  0.94205041     0.18300
H2133       H  0.22849928  0.82158101  0.96810277     0.18300
F2134       F  0.22129027  0.83731417  0.94757172    -0.19500
C2135       C  0.24091356  0.91916021  0.84938567    -0.20900
C2136       C  0.24497268  0.90676434  0.85848325    -0.08900
C2137       C  0.26712648  0.91280075  0.86114255     0.29900
C2138       C  0.28476653  0.93107077  0.85500482    -0.20900
C2139       C  0.28095848  0.94398696  0.84605998    -0.09000
C2140       C  0.25859984  0.93763800  0.84328507     0.29900
F2141       F  0.25350283  0.94913664  0.83479036    -0.19500
H2142       H  0.22397277  0.91483065  0.84718641     0.18300
H2143       H  0.30145823  0.93495926  0.85739476     0.18300
F2144       F  0.27185501  0.90072189  0.86945352    -0.19500
C2145       C  0.03815144  0.72304528  0.86329864    -0.20900
C2146       C  0.03721285  0.72029945  0.84989533    -0.08900
C2147       C  0.05533152  0.73569360  0.84240201     0.29900
C2148       C  0.07439428  0.75292802  0.84835085    -0.20900
C2149       C  0.07566481  0.75517522  0.86184498    -0.09000
C2150       C  0.05697104  0.74035078  0.86922558     0.29900
F2151       F  0.05662238  0.74257003  0.88217846    -0.19500
H2152       H  0.02418465  0.71170203  0.86925313     0.18300
H2153       H  0.08844816  0.76401786  0.84238993     0.18300
F2154       F  0.05514831  0.73339325  0.82942703    -0.19500
C2155       C  0.40543041  0.18847329  0.04083820    -0.20900
C2156       C  0.41056362  0.20596316  0.04947022    -0.08900
C2157       C  0.42545075  0.22798448  0.04551867     0.29900
C2158       C  0.43468161  0.23227423  0.03317734    -0.20900
C2159       C  0.42952524  0.21479317  0.02456343    -0.09000
C2160       C  0.41479296  0.19275876  0.02853489     0.29900
F2161       F  0.40878785  0.17533661  0.02044044    -0.19500
H2162       H  0.39383440  0.17137801  0.04350136     0.18300
H2163       H  0.44624388  0.24935150  0.03044700     0.18300
F2164       F  0.43171157  0.24540886  0.05363904    -0.19500
C2165       C  0.50130219  0.36095182  0.93461172    -0.20900
C2166       C  0.52022253  0.36902538  0.92674187    -0.08900
C2167       C  0.53159128  0.35722892  0.92602517     0.29900
C2168       C  0.52400581  0.33751058  0.93297892    -0.20900
C2169       C  0.50508837  0.32930649  0.94090744    -0.09000
C2170       C  0.49380726  0.34128252  0.94171379     0.29900
F2171       F  0.47515006  0.33362253  0.94898829    -0.19500
H2172       H  0.49239127  0.36992199  0.93524167     0.18300
H2173       H  0.53308336  0.32872280  0.93223282     0.18300
F2174       F  0.55001437  0.36480442  0.91853666    -0.19500
C2175       C  0.64486095  0.49431707  0.94519398    -0.20900
C2176       C  0.65850390  0.48525400  0.94261110    -0.08900
C2177       C  0.65095462  0.46744158  0.93382050     0.29900
C2178       C  0.63073458  0.45958403  0.92744199    -0.20900
C2179       C  0.61761356  0.46916107  0.92969477    -0.09000
C2180       C  0.62454000  0.48637804  0.93873560     0.29900
F2181       F  0.61184302  0.49566430  0.94112138    -0.19500
H2182       H  0.65019178  0.50793245  0.95194057     0.18300
H2183       H  0.62539937  0.44616342  0.92053981     0.18300
F2184       F  0.66283651  0.45727986  0.93146720    -0.19500
C2185       C  0.80183253  0.58523181  0.02499837    -0.20900
C2186       C  0.77908331  0.57059630  0.02250822    -0.08900
C2187       C  0.76334379  0.56892365  0.03162893     0.29900
C2188       C  0.77031113  0.58157771  0.04292394    -0.20900
C2189       C  0.79305117  0.59608130  0.04545127    -0.09000
C2190       C  0.80879934  0.59789194  0.03629899     0.29900
F2191       F  0.83089849  0.61231221  0.03803665    -0.19500
H2192       H  0.81433004  0.58717892  0.01808733     0.18300
H2193       H  0.75781774  0.57960021  0.04984744     0.18300
F2194       F  0.74124314  0.55451887  0.02992283    -0.19500
C2195       C  0.89049037  0.50602101  0.86512505    -0.20900
C2196       C  0.90550747  0.50514602  0.87373014    -0.08900
C2197       C  0.92755794  0.52282180  0.87423412     0.29900
C2198       C  0.93431422  0.54155043  0.86647783    -0.20900
C2199       C  0.91917560  0.54294976  0.85808159    -0.09000
C2200       C  0.89720353  0.52468596  0.85729808     0.29900
F2201       F  0.88183440  0.52511209  0.84947607    -0.19500
H2202       H  0.87339053  0.49239891  0.86470480     0.18300
H2203       H  0.95139691  0.55506776  0.86718220     0.18300
F2204       F  0.94232363  0.52217693  0.88249936    -0.19500
C2205       C  0.82803150  0.48117775  0.92110367    -0.20900
C2206       C  0.84076888  0.47451105  0.92821837    -0.08900
C2207       C  0.84181937  0.47696029  0.94167423     0.29900
C2208       C  0.82998913  0.48565860  0.94786546    -0.20900
C2209       C  0.81685917  0.49194432  0.94074610    -0.09000
C2210       C  0.81636998  0.48998512  0.92723121     0.29900
F2211       F  0.80499360  0.49694596  0.91984291    -0.19500
H2212       H  0.82716418  0.47955874  0.91071823     0.18300
H2213       H  0.83068867  0.48696681  0.95825658     0.18300
F2214       F  0.85414900  0.47080454  0.94880190    -0.19500
C2215       C  0.57903744  0.81100004  0.94137821    -0.20900
C2216       C  0.57774650  0.79384009  0.93364451    -0.08900
C2217       C  0.56501691  0.77171339  0.93799650     0.29900
C2218       C  0.55416751  0.76698608  0.94988037    -0.20900
C2219       C  0.55567243  0.78411019  0.95772855    -0.09000
C2220       C  0.56825190  0.80627711  0.95333145     0.29900
F2221       F  0.57087255  0.82350386  0.96071486    -0.19500
H2222       H  0.58884523  0.82818780  0.93829861     0.18300
H2223       H  0.54430526  0.74975526  0.95285443     0.18300
F2224       F  0.56240976  0.75448453  0.93062236    -0.19500
C2225       C  0.65073710  0.70959867  0.85820768    -0.20900
C2226       C  0.66424904  0.71431680  0.84725151    -0.08900
C2227       C  0.67301670  0.73538071  0.84143638     0.29900
C2228       C  0.66778269  0.75095262  0.84633523    -0.20900
C2229       C  0.65376546  0.74592980  0.85711721    -0.09000
C2230       C  0.64535988  0.72496001  0.86301944     0.29900
F2231       F  0.63115220  0.71864497  0.87314537    -0.19500
H2232       H  0.64393811  0.69375561  0.86309454     0.18300
H2233       H  0.67467170  0.76694512  0.84160187     0.18300
F2234       F  0.68598682  0.74076061  0.83078161    -0.19500
C2235       C  0.60510973  0.54374963  0.86939782    -0.20900
C2236       C  0.61465607  0.54246837  0.85772703    -0.08900
C2237       C  0.61151014  0.52170385  0.85379386     0.29900
C2238       C  0.59954111  0.50287355  0.86155294    -0.20900
C2239       C  0.59056951  0.50443188  0.87330475    -0.09000
C2240       C  0.59321853  0.52492323  0.87714143     0.29900
F2241       F  0.58451533  0.52671555  0.88845559    -0.19500
H2242       H  0.60726167  0.55944317  0.87272242     0.18300
H2243       H  0.59747577  0.48707473  0.85848278     0.18300
F2244       F  0.61962643  0.51942744  0.84239010    -0.19500
C2245       C  0.61924830  0.90172795  0.84831750    -0.20900
C2246       C  0.63518586  0.89544050  0.84623017    -0.08900
C2247       C  0.65397201  0.90921831  0.83865580     0.29900
C2248       C  0.65748659  0.92978213  0.83421100    -0.20900
C2249       C  0.64218852  0.93677248  0.83706848    -0.09000
C2250       C  0.62247192  0.92192912  0.84370171     0.29900
F2251       F  0.60616228  0.92673485  0.84585984    -0.19500
H2252       H  0.60425716  0.89104646  0.85374502     0.18300
H2253       H  0.67265679  0.94055202  0.82898000     0.18300
F2254       F  0.66960743  0.90355287  0.83621662    -0.19500
C2255       C  0.82923369  0.35431968  0.94973906    -0.20900
C2256       C  0.81457487  0.33416063  0.94355196    -0.08900
C2257       C  0.81336942  0.33363607  0.93000809     0.29900
C2258       C  0.82551571  0.35316688  0.92291643    -0.20900
C2259       C  0.83948012  0.37341586  0.92913771    -0.09000
C2260       C  0.84165738  0.37382632  0.94258729     0.29900
F2261       F  0.85552022  0.39317516  0.94877193    -0.19500
H2262       H  0.83059595  0.35514010  0.96012869     0.18300
H2263       H  0.82392986  0.35256290  0.91252964     0.18300
F2264       F  0.80070301  0.31425764  0.92356197    -0.19500
C2265       C  0.80134066  0.22682706  0.02716256    -0.20900
C2266       C  0.77873014  0.22029282  0.02593150    -0.08900
C2267       C  0.76367564  0.20662299  0.03547960     0.29900
C2268       C  0.77105958  0.19929892  0.04586514    -0.20900
C2269       C  0.79360220  0.20557531  0.04704014    -0.09000
C2270       C  0.80875235  0.21952466  0.03757239     0.29900
F2271       F  0.83055507  0.22545311  0.03806498    -0.19500
H2272       H  0.81324947  0.23717161  0.01988383     0.18300
H2273       H  0.75910949  0.18893799  0.05311861     0.18300
F2274       F  0.74190930  0.20082195  0.03500394    -0.19500
C2275       C  0.48272550  0.06385230  0.86762461    -0.20900
C2276       C  0.49228136  0.08589235  0.87199173    -0.08900
C2277       C  0.48418909  0.09932698  0.86714749     0.29900
C2278       C  0.46644102  0.09056351  0.85840222    -0.20900
C2279       C  0.45641064  0.06827556  0.85432463    -0.09000
C2280       C  0.46503551  0.05510621  0.85885133     0.29900
F2281       F  0.45659690  0.03386375  0.85468962    -0.19500
H2282       H  0.48886322  0.05331558  0.87115067     0.18300
H2283       H  0.46015963  0.10109217  0.85509688     0.18300
F2284       F  0.49326099  0.12082770  0.87100361    -0.19500
C2285       C  0.50216738  0.15663888  0.94761708    -0.20900
C2286       C  0.49570855  0.16954040  0.94041833    -0.08900
C2287       C  0.49767301  0.16998021  0.92691566     0.29900
C2288       C  0.50703585  0.15881025  0.92086706    -0.20900
C2289       C  0.51422733  0.14663107  0.92807791    -0.09000
C2290       C  0.51138436  0.14525953  0.94150173     0.29900
F2291       F  0.51787457  0.13324167  0.94866939    -0.19500
H2292       H  0.50078041  0.15593420  0.95800474     0.18300
H2293       H  0.50894494  0.15986878  0.91049828     0.18300
F2294       F  0.49044748  0.18107823  0.91948618    -0.19500
C2295       C  0.61415305  0.10214311  0.87519054    -0.20900
C2296       C  0.59250568  0.08656995  0.87923143    -0.08900
C2297       C  0.58327368  0.06416671  0.87572117     0.29900
C2298       C  0.59542759  0.05756849  0.86806753    -0.20900
C2299       C  0.61712767  0.07313100  0.86385929    -0.09000
C2300       C  0.62645985  0.09556181  0.86765825     0.29900
F2301       F  0.64761445  0.11113327  0.86443096    -0.19500
H2302       H  0.62154858  0.11947311  0.87793991     0.18300
H2303       H  0.58764391  0.04021578  0.86536305     0.18300
F2304       F  0.56256446  0.04867172  0.87977645    -0.19500
C2305       C  0.61767254  0.15345932  0.94572234    -0.20900
C2306       C  0.61801364  0.15343338  0.93221476    -0.08900
C2307       C  0.63837110  0.16634526  0.92576930     0.29900
C2308       C  0.65799547  0.17903554  0.93273744    -0.20900
C2309       C  0.65774354  0.17926687  0.94626590    -0.09000
C2310       C  0.63734930  0.16628237  0.95272435     0.29900
F2311       F  0.63621164  0.16669398  0.96574457    -0.19500
H2312       H  0.60207649  0.14371348  0.95082220     0.18300
H2313       H  0.67343369  0.18878914  0.92750115     0.18300
F2314       F  0.63918464  0.16694576  0.91270912    -0.19500
C2315       C  0.20752723  0.39332517  0.95316409    -0.20900
C2316       C  0.19238141  0.39482006  0.94490244    -0.08900
C2317       C  0.18389560  0.40860618  0.94840555     0.29900
C2318       C  0.19075058  0.42082662  0.95984068    -0.20900
C2319       C  0.20602671  0.41946645  0.96808945    -0.09000
C2320       C  0.21415957  0.40530932  0.96468552     0.29900
F2321       F  0.22794966  0.40238311  0.97261043    -0.19500
H2322       H  0.21400332  0.38253055  0.95081127     0.18300
H2323       H  0.18429294  0.43165677  0.96211023     0.18300
F2324       F  0.16958707  0.41097039  0.94061406    -0.19500
C2325       C  0.04708098  0.31024402  0.84848431    -0.20900
C2326       C  0.04176116  0.32696018  0.85066786    -0.08900
C2327       C  0.05670940  0.34577385  0.85795022     0.29900
C2328       C  0.07531027  0.34684756  0.86375098    -0.20900
C2329       C  0.08006892  0.32972749  0.86205744    -0.09000
C2330       C  0.06619830  0.31170618  0.85400127     0.29900
F2331       F  0.07050560  0.29501823  0.85193818    -0.19500
H2332       H  0.03614310  0.29570645  0.84280735     0.18300
H2333       H  0.08618405  0.36129727  0.86952418     0.18300
F2334       F  0.05374043  0.36345540  0.85933747    -0.19500
C2335       C  0.93460084  0.39934712  0.86614931    -0.20900
C2336       C  0.91902024  0.37993635  0.85956986    -0.08900
C2337       C  0.89625494  0.37335759  0.86024262     0.29900
C2338       C  0.88934693  0.38551139  0.86764610    -0.20900
C2339       C  0.90488518  0.40444979  0.87443848    -0.09000
C2340       C  0.92762301  0.41155130  0.87349180     0.29900
F2341       F  0.94295265  0.42989372  0.87997507    -0.19500
H2342       H  0.95222034  0.40500609  0.86572328     0.18300
H2343       H  0.87173565  0.37984850  0.86834752     0.18300
F2344       F  0.88044532  0.35460183  0.85432610    -0.19500
C2345       C  0.23502708  0.31635089  0.85211769    -0.20900
C2346       C  0.24022782  0.33379269  0.86077754    -0.08900
C2347       C  0.26270359  0.35008094  0.86265598     0.29900
C2348       C  0.27952132  0.34835385  0.85648550    -0.20900
C2349       C  0.27458958  0.33041640  0.84821644    -0.09000
C2350       C  0.25193810  0.31459287  0.84588529     0.29900
F2351       F  0.24586511  0.29730435  0.83770660    -0.19500
H2352       H  0.21782240  0.30371158  0.85038463     0.18300
H2353       H  0.29648272  0.36123598  0.85840826     0.18300
F2354       F  0.26861058  0.36804135  0.87028309    -0.19500
C2355       C  0.46993320  0.38817604  0.85214446    -0.20900
C2356       C  0.44955431  0.38394364  0.85740638    -0.08900
C2357       C  0.44906590  0.39083732  0.87007302     0.29900
C2358       C  0.46853062  0.40115329  0.87741078    -0.20900
C2359       C  0.48870739  0.40488707  0.87222628    -0.09000
C2360       C  0.48945054  0.39873109  0.85946642     0.29900
F2361       F  0.50890431  0.40240806  0.85424911    -0.19500
H2362       H  0.47069043  0.38312283  0.84238978     0.18300
H2363       H  0.46782972  0.40583228  0.88726664     0.18300
F2364       F  0.42964730  0.38652400  0.87563760    -0.19500
C2365       C  0.33230477  0.11024805  0.77335048    -0.20900
C2366       C  0.35050949  0.13205751  0.77224651    -0.08900
C2367       C  0.36988032  0.13794287  0.77940813     0.29900
C2368       C  0.37104036  0.12226792  0.78727339    -0.20900
C2369       C  0.35307799  0.10020980  0.78817397    -0.09000
C2370       C  0.33353764  0.09443620  0.78111291     0.29900
F2371       F  0.31578402  0.07341487  0.78126504    -0.19500
H2372       H  0.31725068  0.10515388  0.76785209     0.18300
H2373       H  0.38622095  0.12762536  0.79264987     0.18300
F2374       F  0.38780328  0.15889347  0.77886403    -0.19500
C2375       C  0.36671034  0.23758923  0.77483687    -0.20900
C2376       C  0.34748594  0.21666078  0.77301911    -0.08900
C2377       C  0.32852735  0.21097951  0.78058931     0.29900
C2378       C  0.32906541  0.22589907  0.78984175    -0.20900
C2379       C  0.34845759  0.24666224  0.79175288    -0.09000
C2380       C  0.36721324  0.25247666  0.78400187     0.29900
F2381       F  0.38588311  0.27284622  0.78493020    -0.19500
H2382       H  0.38141737  0.24264240  0.76901300     0.18300
H2383       H  0.31442033  0.22102565  0.79568638     0.18300
F2384       F  0.30963993  0.19087119  0.77928458    -0.19500
C2385       C  0.75962023  0.09870180  0.78478025    -0.20900
C2386       C  0.74223444  0.10178787  0.78908288    -0.08900
C2387       C  0.73984177  0.11889951  0.78356474     0.29900
C2388       C  0.75482015  0.13288148  0.77421781    -0.20900
C2389       C  0.77256092  0.13022076  0.77007589    -0.09000
C2390       C  0.77470139  0.11276665  0.77540461     0.29900
F2391       F  0.79138212  0.10930595  0.77166915    -0.19500
H2392       H  0.76177079  0.08558660  0.78883277     0.18300
H2393       H  0.75242535  0.14586620  0.77020160     0.18300
F2394       F  0.72262505  0.12179095  0.78687634    -0.19500
C2395       C  0.87106182  0.25044787  0.78425500    -0.20900
C2396       C  0.88653337  0.24649317  0.79062989    -0.08900
C2397       C  0.88717204  0.22714926  0.78746327     0.29900
C2398       C  0.87278651  0.21237713  0.77806201    -0.20900
C2399       C  0.85738910  0.21645121  0.77164712    -0.09000
C2400       C  0.85671703  0.23574219  0.77490084     0.29900
F2401       F  0.84250842  0.24077437  0.76889236    -0.19500
H2402       H  0.87025681  0.26524916  0.78631888     0.18300
H2403       H  0.87364416  0.19763727  0.77585587     0.18300
F2404       F  0.90124015  0.22212113  0.79363249    -0.19500
C2405       C  0.77910445  0.66139398  0.77370101    -0.20900
C2406       C  0.77437427  0.64168293  0.76731475    -0.08900
C2407       C  0.75495525  0.62166321  0.77071560     0.29900
C2408       C  0.74070040  0.62156180  0.78021415    -0.20900
C2409       C  0.74542917  0.64128529  0.78659792    -0.09000
C2410       C  0.76489519  0.66125551  0.78325294     0.29900
F2411       F  0.77069713  0.68058168  0.78944687    -0.19500
H2412       H  0.79402643  0.67700935  0.77141310     0.18300
H2413       H  0.72577921  0.60594182  0.78246463     0.18300
F2414       F  0.74952304  0.60215108  0.76483143    -0.19500
C2415       C  0.85588937  0.62206662  0.77169227    -0.20900
C2416       C  0.85968980  0.64272780  0.76723006    -0.08900
C2417       C  0.87850538  0.66223971  0.77185236     0.29900
C2418       C  0.89291036  0.66088607  0.78077902    -0.20900
C2419       C  0.88908611  0.64013282  0.78523978    -0.09000
C2420       C  0.87036302  0.62067691  0.78043624     0.29900
F2421       F  0.86614435  0.60008280  0.78375054    -0.19500
H2422       H  0.84175632  0.60671243  0.76824543     0.18300
H2423       H  0.90706736  0.67621455  0.78419245     0.18300
F2424       F  0.88323477  0.68264647  0.76767476    -0.19500
C2425       C  0.62291532  0.82950801  0.52395027    -0.20900
C2426       C  0.62085531  0.81331512  0.53280911    -0.08900
C2427       C  0.60533683  0.79077837  0.53030913     0.29900
C2428       C  0.59213945  0.78467076  0.51923226    -0.20900
C2429       C  0.59391966  0.80084039  0.51046348    -0.09000
C2430       C  0.60969449  0.82337709  0.51283551     0.29900
F2431       F  0.61267793  0.83944182  0.50431941    -0.19500
H2432       H  0.63489976  0.84694649  0.52559755     0.18300
H2433       H  0.57994931  0.76724844  0.51775178     0.18300
F2434       F  0.60201632  0.77468135  0.53888047    -0.19500
C2435       C  0.75008397  0.62522748  0.69323906    -0.20900
C2436       C  0.74786137  0.64402028  0.69136951    -0.08900
C2437       C  0.76042576  0.66283810  0.69922570     0.29900
C2438       C  0.77454094  0.66261033  0.70875008    -0.20900
C2439       C  0.77638952  0.64366437  0.71075194    -0.09000
C2440       C  0.76411281  0.62497695  0.70278677     0.29900
F2441       F  0.76589312  0.60653827  0.70403500    -0.19500
H2442       H  0.74104412  0.61060789  0.68724958     0.18300
H2443       H  0.78373963  0.67720940  0.71475290     0.18300
F2444       F  0.75863738  0.68125615  0.69808994    -0.19500
C2445       C  0.69029182  0.74525088  0.63343730    -0.20900
C2446       C  0.67832989  0.72389753  0.62789248    -0.08900
C2447       C  0.66756188  0.72158702  0.61602798     0.29900
C2448       C  0.66837905  0.73997322  0.61007398    -0.20900
C2449       C  0.67987971  0.76123624  0.61569569    -0.09000
C2450       C  0.69101157  0.76372905  0.62747124     0.29900
F2451       F  0.70291225  0.78399654  0.63314275    -0.19500
H2452       H  0.69887528  0.74762921  0.64250906     0.18300
H2453       H  0.65959414  0.73734223  0.60106260     0.18300
F2454       F  0.65660247  0.70166612  0.60990744    -0.19500
C2455       C  0.76317119  0.10166308  0.69882923    -0.20900
C2456       C  0.74449866  0.10317437  0.69514511    -0.08900
C2457       C  0.74147163  0.11971933  0.70105126     0.29900
C2458       C  0.75653860  0.13405761  0.71028289    -0.20900
C2459       C  0.77503691  0.13243234  0.71404948    -0.09000
C2460       C  0.77827524  0.11606687  0.70813403     0.29900
F2461       F  0.79601170  0.11391407  0.71128732    -0.19500
H2462       H  0.76623847  0.08936520  0.69447013     0.18300
H2463       H  0.75342054  0.14633440  0.71464892     0.18300
F2464       F  0.72362282  0.12186874  0.69832186    -0.19500
C2465       C  0.65432946  0.92248663  0.61513194    -0.20900
C2466       C  0.66776164  0.91423113  0.61963550    -0.08900
C2467       C  0.68071570  0.92378187  0.63074948     0.29900
C2468       C  0.68038285  0.94139572  0.63703993    -0.20900
C2469       C  0.66711522  0.94985007  0.63245541    -0.09000
C2470       C  0.65395438  0.94002718  0.62138547     0.29900
F2471       F  0.64119999  0.94765210  0.61620829    -0.19500
H2472       H  0.64402840  0.91539106  0.60666956     0.18300
H2473       H  0.69061765  0.94842943  0.64552515     0.18300
F2474       F  0.69433980  0.91672440  0.63531852    -0.19500
C2475       C  0.82354539  0.35532296  0.53584452    -0.20900
C2476       C  0.80936477  0.33538541  0.54240308    -0.08900
C2477       C  0.80873436  0.33566804  0.55595627     0.29900
C2478       C  0.82180853  0.35547398  0.56271577    -0.20900
C2479       C  0.83586267  0.37539645  0.55617918    -0.09000
C2480       C  0.83659201  0.37521974  0.54265238     0.29900
F2481       F  0.85000605  0.39424013  0.53606117    -0.19500
H2482       H  0.82428485  0.35555626  0.52543131     0.18300
H2483       H  0.82110734  0.35527685  0.57313450     0.18300
F2484       F  0.79605673  0.31669025  0.56275089    -0.19500
C2485       C  0.76696617  0.19869663  0.45658150    -0.20900
C2486       C  0.78286381  0.21272662  0.46563899    -0.08900
C2487       C  0.80551181  0.22039863  0.46329643     0.29900
C2488       C  0.81204641  0.21423979  0.45203063    -0.20900
C2489       C  0.79615955  0.20029871  0.44290114    -0.09000
C2490       C  0.77347135  0.19266317  0.44528152     0.29900
F2491       F  0.75755147  0.18004245  0.43652715    -0.19500
H2492       H  0.74944645  0.19279328  0.45810516     0.18300
H2493       H  0.82956769  0.22013599  0.45055633     0.18300
F2494       F  0.82127580  0.23323838  0.47207886    -0.19500
C2495       C  0.81711395  0.49143746  0.56295173    -0.20900
C2496       C  0.82116342  0.49872375  0.55006684    -0.08900
C2497       C  0.83768555  0.49699618  0.54314692     0.29900
C2498       C  0.84919087  0.48757732  0.54891407    -0.20900
C2499       C  0.84461085  0.47990635  0.56163774    -0.09000
C2500       C  0.82867392  0.48212277  0.56867954     0.29900
F2501       F  0.82396376  0.47479985  0.58102343    -0.19500
H2502       H  0.80485374  0.49278769  0.56865298     0.18300
H2503       H  0.86149549  0.48596346  0.54339616     0.18300
F2504       F  0.84225251  0.50354953  0.53069015    -0.19500
C2505       C  0.77406049  0.58733045  0.44860001    -0.20900
C2506       C  0.79650054  0.60325480  0.44621761    -0.08900
C2507       C  0.81248326  0.60715881  0.45573304     0.29900
C2508       C  0.80609436  0.59516709  0.46726758    -0.20900
C2509       C  0.78368106  0.57921780  0.46963729    -0.09000
C2510       C  0.76766363  0.57537176  0.46015903     0.29900
F2511       F  0.74594419  0.55954266  0.46183066    -0.19500
H2512       H  0.76144942  0.58376548  0.44138970     0.18300
H2513       H  0.81870374  0.59869764  0.47447494     0.18300
F2514       F  0.83419571  0.62303420  0.45411296    -0.19500
C2515       C  0.57489226  0.51917053  0.61413724    -0.20900
C2516       C  0.58478948  0.50665365  0.61081627    -0.08900
C2517       C  0.60591027  0.51275416  0.61574153     0.29900
C2518       C  0.61713637  0.53141608  0.62368425    -0.20900
C2519       C  0.60757796  0.54442217  0.62676125    -0.09000
C2520       C  0.58617752  0.53795829  0.62202061     0.29900
F2521       F  0.57602381  0.54957973  0.62513081    -0.19500
H2522       H  0.55850600  0.51448284  0.61049256     0.18300
H2523       H  0.63360674  0.53602886  0.62712337     0.18300
F2524       F  0.61572810  0.50075329  0.61273425    -0.19500
C2525       C  0.62131062  0.47927410  0.54488615    -0.20900
C2526       C  0.61812219  0.47450207  0.55806729    -0.08900
C2527       C  0.63639652  0.47892830  0.56583770     0.29900
C2528       C  0.65762606  0.48809838  0.56048748    -0.20900
C2529       C  0.66107221  0.49307286  0.54728175    -0.09000
C2530       C  0.64262037  0.48854990  0.53949268     0.29900
F2531       F  0.64492309  0.49242769  0.52663760    -0.19500
H2532       H  0.60727465  0.47580894  0.53880099     0.18300
H2533       H  0.67141645  0.49148143  0.56675375     0.18300
F2534       F  0.63361229  0.47428802  0.57862581    -0.19500
C2535       C  0.50793320  0.34902261  0.53890191    -0.20900
C2536       C  0.50504040  0.33047459  0.54589691    -0.08900
C2537       C  0.50879198  0.33247720  0.55928886     0.29900
C2538       C  0.51553407  0.35272261  0.56544914    -0.20900
C2539       C  0.51875617  0.37127821  0.55839911    -0.09000
C2540       C  0.51486618  0.36933062  0.54508477     0.29900
F2541       F  0.51792573  0.38712794  0.53809721    -0.19500
H2542       H  0.50521267  0.34791030  0.52860080     0.18300
H2543       H  0.51849499  0.35404323  0.57573576     0.18300
F2544       F  0.50546653  0.31481275  0.56651338    -0.19500
C2545       C  0.40249214  0.18626569  0.44881530    -0.20900
C2546       C  0.38961453  0.19574436  0.44531570    -0.08900
C2547       C  0.38821357  0.21060928  0.45391156     0.29900
C2548       C  0.39962694  0.21592577  0.46566006    -0.20900
C2549       C  0.41268087  0.20659889  0.46911975    -0.09000
C2550       C  0.41405613  0.19171811  0.46050421     0.29900
F2551       F  0.42732720  0.18313764  0.46302948    -0.19500
H2552       H  0.40421585  0.17509681  0.44230765     0.18300
H2553       H  0.39805571  0.22724829  0.47211563     0.18300
F2554       F  0.37545653  0.21968435  0.45113341    -0.19500
C2555       C  0.57641780  0.05717119  0.61326190    -0.20900
C2556       C  0.58651255  0.07972878  0.60987518    -0.08900
C2557       C  0.60753834  0.09488769  0.61499327     0.29900
C2558       C  0.61846125  0.08749329  0.62313858    -0.20900
C2559       C  0.60866316  0.06482643  0.62637461    -0.09000
C2560       C  0.58729766  0.04972439  0.62145006     0.29900
F2561       F  0.57663742  0.02785707  0.62472596    -0.19500
H2562       H  0.56007382  0.04532610  0.60953081     0.18300
H2563       H  0.63483029  0.09954889  0.62670906     0.18300
F2564       F  0.61750257  0.11688541  0.61208298    -0.19500
C2565       C  0.62077086  0.14365298  0.54291506    -0.20900
C2566       C  0.61937186  0.14592955  0.55622756    -0.08900
C2567       C  0.63841998  0.16106953  0.56313096     0.29900
C2568       C  0.65852687  0.17418374  0.55671622    -0.20900
C2569       C  0.65998426  0.17223941  0.54335076    -0.09000
C2570       C  0.64099379  0.15662084  0.53648783     0.29900
F2571       F  0.64165019  0.15468669  0.52352476    -0.19500
H2572       H  0.60608357  0.13213170  0.53750396     0.18300
H2573       H  0.67296005  0.18600561  0.56219917     0.18300
F2574       F  0.63734500  0.16356287  0.57602278    -0.19500
C2575       C  0.51652846  0.14744141  0.54415657    -0.20900
C2576       C  0.52071039  0.14943135  0.55744184    -0.08900
C2577       C  0.51674154  0.16408766  0.56467333     0.29900
C2578       C  0.50844674  0.17634618  0.55871987    -0.20900
C2579       C  0.50396927  0.17424737  0.54544954    -0.09000
C2580       C  0.50818563  0.15973579  0.53816842     0.29900
F2581       F  0.50502546  0.15802126  0.52523789    -0.19500
H2582       H  0.51977711  0.13638415  0.53845082     0.18300
H2583       H  0.50537662  0.18740716  0.56453998     0.18300
F2584       F  0.52104025  0.16660457  0.57750014    -0.19500
C2585       C  0.21290942  0.81446104  0.51856013    -0.20900
C2586       C  0.20310092  0.79198640  0.51492078    -0.08900
C2587       C  0.18780597  0.77549951  0.52337973     0.29900
C2588       C  0.18253180  0.78148155  0.53513279    -0.20900
C2589       C  0.19251543  0.80393171  0.53881684    -0.09000
C2590       C  0.20773025  0.82042584  0.53035211     0.29900
F2591       F  0.21722228  0.84236854  0.53326504    -0.19500
H2592       H  0.22449871  0.82755558  0.51221090     0.18300
H2593       H  0.17099371  0.76840485  0.54151167     0.18300
F2594       F  0.17854808  0.75353351  0.52061396    -0.19500
C2595       C  0.37101159  0.13288132  0.71592624    -0.20900
C2596       C  0.35069886  0.13200380  0.71833170    -0.08900
C2597       C  0.33138502  0.11555517  0.71203463     0.29900
C2598       C  0.33265960  0.10105942  0.70320114    -0.20900
C2599       C  0.35310753  0.10246229  0.70045851    -0.09000
C2600       C  0.37223629  0.11822687  0.70720285     0.29900
F2601       F  0.39209719  0.11928796  0.70562061    -0.19500
H2602       H  0.38606031  0.14487647  0.72088324     0.18300
H2603       H  0.31761232  0.08908028  0.69825614     0.18300
F2604       F  0.31126453  0.11364977  0.71418632    -0.19500
C2605       C  0.25722247  0.93278599  0.61460398    -0.20900
C2606       C  0.24086307  0.91597848  0.62240036    -0.08900
C2607       C  0.24097359  0.92001322  0.63572077     0.29900
C2608       C  0.25737435  0.94032320  0.64101338    -0.20900
C2609       C  0.27407978  0.95670520  0.63318800    -0.09000
C2610       C  0.27363245  0.95283381  0.61988499     0.29900
F2611       F  0.28894018  0.96855479  0.61188402    -0.19500
H2612       H  0.25738032  0.93056723  0.60430869     0.18300
H2613       H  0.25754509  0.94288806  0.65130279     0.18300
F2614       F  0.22594971  0.90412488  0.64374291    -0.19500
C2615       C  0.48642343  0.10079723  0.61799223    -0.20900
C2616       C  0.48819454  0.08427701  0.61134007    -0.08900
C2617       C  0.47140420  0.06194071  0.61261869     0.29900
C2618       C  0.45281571  0.05628078  0.62031497    -0.20900
C2619       C  0.45057373  0.07283876  0.62676053    -0.09000
C2620       C  0.46779885  0.09522506  0.62562961     0.29900
F2621       F  0.46623307  0.11192711  0.63126587    -0.19500
H2622       H  0.49920677  0.11814110  0.61691025     0.18300
H2623       H  0.44000785  0.03890808  0.62104124     0.18300
F2624       F  0.47260732  0.04576731  0.60601970    -0.19500
C2625       C  0.87038486  0.62584386  0.69581736    -0.20900
C2626       C  0.89242447  0.64383256  0.69526899    -0.08900
C2627       C  0.89839220  0.66261645  0.70306241     0.29900
C2628       C  0.88273205  0.66299890  0.71134534    -0.20900
C2629       C  0.86096072  0.64466603  0.71214889    -0.09000
C2630       C  0.85484382  0.62616753  0.70415234     0.29900
F2631       F  0.83378098  0.60837253  0.70430466    -0.19500
H2632       H  0.86501274  0.61135240  0.68977825     0.18300
H2633       H  0.88788796  0.67739036  0.71746392     0.18300
F2634       F  0.91950129  0.68026177  0.70315924    -0.19500
C2635       C  0.05658913  0.73882035  0.64043208    -0.20900
C2636       C  0.04272243  0.71938503  0.63347098    -0.08900
C2637       C  0.04683715  0.71854923  0.62033031     0.29900
C2638       C  0.06492832  0.73660453  0.61438764    -0.20900
C2639       C  0.07960688  0.75586310  0.62139872    -0.09000
C2640       C  0.07494773  0.75686519  0.63454250     0.29900
F2641       F  0.08818781  0.77485851  0.64190712    -0.19500
H2642       H  0.05359496  0.73978952  0.65057646     0.18300
H2643       H  0.06733824  0.73521638  0.60423696     0.18300
F2644       F  0.03312464  0.70043626  0.61312126    -0.19500
C2645       C  0.90585485  0.52681847  0.62932841    -0.20900
C2646       C  0.92891737  0.54140018  0.63080757    -0.08900
C2647       C  0.94371556  0.53645558  0.62433190     0.29900
C2648       C  0.93554108  0.51803304  0.61610275    -0.20900
C2649       C  0.91256161  0.50416905  0.61425238    -0.09000
C2650       C  0.89774405  0.50838655  0.62114148     0.29900
F2651       F  0.87540155  0.49491317  0.61967974    -0.19500
H2652       H  0.89400555  0.53003030  0.63416529     0.18300
H2653       H  0.94714658  0.51480903  0.61096032     0.18300
F2654       F  0.96607836  0.54929119  0.62595660    -0.19500
C2655       C  0.21035010  0.39466178  0.53383999    -0.20900
C2656       C  0.19536543  0.39600102  0.54233925    -0.08900
C2657       C  0.18763456  0.41062171  0.53931442     0.29900
C2658       C  0.19444333  0.42321038  0.52796587    -0.20900
C2659       C  0.20920899  0.42170391  0.51935476    -0.09000
C2660       C  0.21714789  0.40722893  0.52246308     0.29900
F2661       F  0.23087118  0.40452468  0.51436586    -0.19500
H2662       H  0.21649221  0.38346979  0.53585585     0.18300
H2663       H  0.18832010  0.43443292  0.52603188     0.18300
F2664       F  0.17404503  0.41337743  0.54749754    -0.19500
C2665       C  0.87240436  0.25179353  0.70245689    -0.20900
C2666       C  0.88890765  0.24850785  0.69684640    -0.08900
C2667       C  0.89089990  0.23037832  0.70113756     0.29900
C2668       C  0.87651508  0.21587242  0.71057950    -0.20900
C2669       C  0.85973158  0.21890746  0.71596716    -0.09000
C2670       C  0.85800271  0.23727064  0.71187307     0.29900
F2671       F  0.84242059  0.24132592  0.71691935    -0.19500
H2672       H  0.87056808  0.26571823  0.69961211     0.18300
H2673       H  0.87834107  0.20196571  0.71352191     0.18300
F2674       F  0.90618971  0.22603740  0.69599767    -0.19500
C2675       C  0.05118121  0.31278429  0.63974995    -0.20900
C2676       C  0.03497600  0.31265817  0.63164317    -0.08900
C2677       C  0.03790985  0.31300731  0.61826089     0.29900
C2678       C  0.05725774  0.31478607  0.61312212    -0.20900
C2679       C  0.07423402  0.31632836  0.62116061    -0.09000
C2680       C  0.07071980  0.31468698  0.63459933     0.29900
F2681       F  0.08648496  0.31603906  0.64282852    -0.19500
H2682       H  0.04916511  0.31239333  0.65010073     0.18300
H2683       H  0.05898145  0.31518704  0.60276117     0.18300
F2684       F  0.02197659  0.31150374  0.61009770    -0.19500
C2685       C  0.93458523  0.39553536  0.61796223    -0.20900
C2686       C  0.91877264  0.37475242  0.62311040    -0.08900
C2687       C  0.89595653  0.36684258  0.62104049     0.29900
C2688       C  0.88924657  0.37951578  0.61396158    -0.20900
C2689       C  0.90508820  0.40019797  0.60879522    -0.09000
C2690       C  0.92783221  0.40819429  0.61089371     0.29900
F2691       F  0.94347211  0.42808394  0.60591983    -0.19500
H2692       H  0.95222336  0.40202822  0.61943626     0.18300
H2693       H  0.87164387  0.37307701  0.61234231     0.18300
F2694       F  0.88013936  0.34648098  0.62535427    -0.19500
C2695       C  0.32826206  0.21204856  0.71078058    -0.20900
C2696       C  0.34792276  0.21712763  0.71742864    -0.08900
C2697       C  0.36758398  0.23731616  0.71456423     0.29900
C2698       C  0.36753010  0.25179305  0.70527766    -0.20900
C2699       C  0.34799637  0.24669312  0.69856110    -0.09000
C2700       C  0.32826087  0.22659588  0.70140953     0.29900
F2701       F  0.30916747  0.22057231  0.69485126    -0.19500
H2702       H  0.31289993  0.19661902  0.71269534     0.18300
H2703       H  0.38291422  0.26723795  0.70345063     0.18300
F2704       F  0.38695154  0.24335697  0.72082306    -0.19500
C2705       C  0.27440445  0.32564248  0.62241696    -0.20900
C2706       C  0.27339926  0.32184636  0.63571008    -0.08900
C2707       C  0.25461577  0.31857033  0.64258656     0.29900
C2708       C  0.23753424  0.31990209  0.63626806    -0.20900
C2709       C  0.23873075  0.32425282  0.62295487    -0.09000
C2710       C  0.25727851  0.32661789  0.61605413     0.29900
F2711       F  0.25899940  0.32958191  0.60312295    -0.19500
H2712       H  0.28851269  0.32773558  0.61686747     0.18300
H2713       H  0.22363533  0.31802537  0.64191465     0.18300
F2714       F  0.25323584  0.31512441  0.65549205    -0.19500
C2715       C  0.45461212  0.40001034  0.62416097    -0.20900
C2716       C  0.44905820  0.37880164  0.62874253    -0.08900
C2717       C  0.46293173  0.37021779  0.62558175     0.29900
C2718       C  0.48146757  0.38236239  0.61765999    -0.20900
C2719       C  0.48647186  0.40316313  0.61277258    -0.09000
C2720       C  0.47317841  0.41213401  0.61626574     0.29900
F2721       F  0.47778829  0.43230237  0.61171497    -0.19500
H2722       H  0.44441554  0.40714784  0.62657027     0.18300
H2723       H  0.49166292  0.37530424  0.61504205     0.18300
F2724       F  0.45804486  0.34966555  0.62953325    -0.19500
loop_ 
_geom_bond_atom_site_label_1 
_geom_bond_atom_site_label_2 
_geom_bond_distance 
_geom_bond_site_symmetry_2 
_ccdc_geom_bond_type 
N1            N2   1.323       .  A
N1            C5   1.350       .  A
N1           Cu9   2.090       .  S
N2            C3   1.343       .  A
N2           Cu8   2.075       .  S
C3            C4   1.385       .  A
C3            H6   1.082       .  S
C4            C5   1.390       .  A
C4         C2699   1.488       .  S
C5            H7   1.081       .  S
Cu8          N11   2.073       .  S
Cu9          N19   2.089       .  S
Cu10         N12   2.058       .  S
Cu10         N18   2.059       .  S
N11          N12   1.319       .  A
N11          C15   1.345       .  A
N12          C13   1.342       .  A
C13          C14   1.384       .  A
C13          H16   1.082       .  S
C14          C15   1.388       .  A
C14        C2716   1.481       .  S
C15          H17   1.081       .  S
N18          N19   1.323       .  A
N18          C22   1.341       .  A
N19          C20   1.349       .  A
C20          C21   1.387       .  A
C20          H23   1.082       .  S
C21          C22   1.380       .  A
C21        C2706   1.478       .  S
C22          H24   1.082       .  S
N25          N26   1.321       .  A
N25          C29   1.346       .  A
N25         Cu33   2.082       .  S
N26          C27   1.344       .  A
N26         Cu32   2.076       .  S
C27          C28   1.389       .  A
C27          H30   1.081       .  S
C28          C29   1.391       .  A
C28        C2666   1.492       .  S
C29          H31   1.080       .  S
Cu32         N35   2.075       .  S
Cu33         N43   2.081       .  S
Cu34         N36   2.075       .  S
Cu34         N42   2.075       .  S
N35          N36   1.321       .  A
N35          C39   1.345       .  A
N36          C37   1.345       .  A
C37          C38   1.386       .  A
C37          H40   1.082       .  S
C38          C39   1.387       .  A
C38        C2686   1.483       .  S
C39          H41   1.081       .  S
N42          N43   1.323       .  A
N42          C46   1.343   1_655  A
N43          C44   1.349   1_655  A
C44          C45   1.386       .  A
C44          H47   1.082       .  S
C45          C46   1.384       .  A
C45        C2676   1.480       .  S
C46          H48   1.082       .  S
N49          N50   1.321       .  A
N49          C53   1.348       .  A
N49         Cu57   2.084       .  S
N50          C51   1.341       .  A
N50         Cu56   2.070       .  S
C51          C52   1.387       .  A
C51          H54   1.079       .  S
C52          C53   1.392       .  A
C52        C2709   1.491       .  S
C53          H55   1.081       .  S
Cu56         N59   2.070       .  S
Cu57         N67   2.084       .  S
Cu58         N60   2.084       .  S
Cu58         N66   2.085       .  S
N59          N60   1.319       .  A
N59          C63   1.346       .  A
N60          C61   1.347       .  A
C61          C62   1.391       .  A
C61          H64   1.081       .  S
C62          C63   1.388       .  A
C62        C2656   1.490       .  S
C63          H65   1.082       .  S
N66          N67   1.323       .  A
N66          C70   1.343       .  A
N67          C68   1.349       .  A
C68          C69   1.390       .  A
C68          H71   1.081       .  S
C69          C70   1.387       .  A
C69        C2679   1.490       .  S
C70          H72   1.081       .  S
N73          N74   1.322       .  A
N73          C77   1.346   1_655  A
N73         Cu81   2.073       .  S
N74          C75   1.342   1_655  A
N74         Cu80   2.066       .  S
C75          C76   1.382       .  A
C75          H78   1.082       .  S
C76          C77   1.384       .  A
C76        C2636   1.474       .  S
C77          H79   1.082       .  S
Cu80         N83   2.066       .  S
Cu81         N91   2.074       .  S
Cu82         N84   2.078       .  S
Cu82         N90   2.078       .  S
N83          N84   1.319       .  A
N83          C87   1.343       .  A
N84          C85   1.347       .  A
C85          C86   1.391       .  A
C85          H88   1.082       .  S
C86          C87   1.387       .  A
C86        C2646   1.488       .  S
C87          H89   1.081       .  S
N90          N91   1.322       .  A
N90          C94   1.342       .  A
N91          C92   1.346       .  A
C92          C93   1.389       .  A
C92          H95   1.081       .  S
C93          C94   1.387       .  A
C93        C2626   1.487       .  S
C94          H96   1.081       .  S
N97          N98   1.324       .  A
N97         C101   1.348       .  A
N97        Cu105   2.095       .  S
N98          C99   1.345       .  A
N98        Cu104   2.082       .  S
C99         C100   1.387       .  A
C99         H102   1.081       .  S
C100        C101   1.390       .  A
C100       C2599   1.490       .  S
C101        H103   1.082       .  S
Cu104       N107   2.080       .  S
Cu105       N115   2.094       .  S
Cu106       N108   2.051       .  S
Cu106       N114   2.051       .  S
N107        N108   1.318       .  A
N107        C111   1.346       .  A
N108        C109   1.341       .  A
C109        C110   1.384       .  A
C109        H112   1.082       .  S
C110        C111   1.392       .  A
C110       C2619   1.485       .  S
C111        H113   1.081       .  S
N114        N115   1.321       .  A
N114        C118   1.338   1_545  A
N115        C116   1.351   1_545  A
C116        C117   1.391       .  A
C116        H119   1.082       .  S
C117        C118   1.379       .  A
C117       C2609   1.479       .  S
C118        H120   1.082       .  S
N121        N122   1.322       .  A
N121        C125   1.346       .  A
N121       Cu129   2.071       .  S
N122        C123   1.341       .  A
N122       Cu128   2.074       .  S
C123        C124   1.387       .  A
C123        H126   1.081       .  S
C124        C125   1.388       .  A
C124       C2606   1.486       .  S
C125        H127   1.081       .  S
Cu128       N131   2.073       .  S
Cu129       N139   2.071       .  S
Cu130       N132   2.069       .  S
Cu130       N138   2.069       .  S
N131        N132   1.320       .  A
N131        C135   1.345       .  A
N132        C133   1.344       .  A
C133        C134   1.387       .  A
C133        H136   1.082       .  S
C134        C135   1.388       .  A
C134       C2589   1.484       .  S
C135        H137   1.081       .  S
N138        N139   1.320       .  A
N138        C142   1.340       .  A
N139        C140   1.345       .  A
C140        C141   1.392       .  A
C140        H143   1.079       .  S
C141        C142   1.389       .  A
C141       C2639   1.492       .  S
C142        H144   1.080       .  S
N145        C150   1.354       .  A
N145        C149   1.351       .  A
N145        H177   1.040       .  S
N146        C153   1.350       .  A
N146        C154   1.352       .  A
N147        C152   1.352       .  A
N147        C151   1.354       .  A
N147        H178   1.039       .  S
N148        C155   1.351       .  A
N148        C156   1.350       .  A
C149        C157   1.388       .  A
C149        C165   1.414       .  A
C150        C166   1.412       .  A
C150        C158   1.386       .  A
C151        C159   1.387       .  A
C151        C168   1.416       .  A
C152        C167   1.413       .  A
C152        C160   1.386       .  A
C153        C165   1.411       .  A
C153        C161   1.386       .  A
C154        C168   1.414       .  A
C154        C162   1.386       .  A
C155        C163   1.385       .  A
C155        C166   1.410       .  A
C156        C164   1.387       .  A
C156        C167   1.411       .  A
C157        C158   1.374       .  A
C157        H169   1.082       .  S
C158        H170   1.082       .  S
C159        C160   1.376       .  A
C159        H171   1.082       .  S
C160        H172   1.082       .  S
C161        C162   1.372       .  A
C161        H173   1.083       .  S
C162        H174   1.082       .  S
C163        C164   1.371       .  A
C163        H175   1.082       .  S
C164        H176   1.082       .  S
C165       C2566   1.479       .  S
C166       C2576   1.486       .  S
C167       C2616   1.480       .  S
C168       C2556   1.491       .  S
N179        N180   1.321       .  A
N179        C183   1.346       .  A
N179       Cu187   2.081       .  S
N180        C181   1.341       .  A
N180       Cu186   2.053       .  S
C181        C182   1.382       .  A
C181        H184   1.081       .  S
C182        C183   1.388       .  A
C182       C2536   1.478       .  S
C183        H185   1.082       .  S
Cu186       N189   2.053       .  S
Cu187       N197   2.082       .  S
Cu188       N190   2.080       .  S
Cu188       N196   2.081       .  S
N189        N190   1.320       .  A
N189        C193   1.341       .  A
N190        C191   1.347       .  A
C191        C192   1.388       .  A
C191        H194   1.082       .  S
C192        C193   1.382       .  A
C192       C2579   1.479       .  S
C193        H195   1.082       .  S
N196        N197   1.323       .  A
N196        C200   1.345       .  A
N197        C198   1.346       .  A
C198        C199   1.388       .  A
C198        H201   1.082       .  S
C199        C200   1.387       .  A
C199       C2549   1.487       .  S
C200        H202   1.081       .  S
N203        C208   1.353       .  A
N203        C207   1.352       .  A
N203        H235   1.040       .  S
N204        C211   1.350       .  A
N204        C212   1.350       .  A
N205        C210   1.352       .  A
N205        C209   1.351       .  A
N205        H236   1.040       .  S
N206        C213   1.349       .  A
N206        C214   1.350       .  A
C207        C215   1.387       .  A
C207        C223   1.412       .  A
C208        C224   1.413       .  A
C208        C216   1.387       .  A
C209        C217   1.387       .  A
C209        C226   1.412       .  A
C210        C225   1.412       .  A
C210        C218   1.387       .  A
C211        C223   1.410       .  A
C211        C219   1.385       .  A
C212        C226   1.412       .  A
C212        C220   1.387       .  A
C213        C221   1.386       .  A
C213        C224   1.409       .  A
C214        C222   1.386       .  A
C214        C225   1.411       .  A
C215        C216   1.375       .  A
C215        H227   1.082       .  S
C216        H228   1.082       .  S
C217        C218   1.376       .  A
C217        H229   1.082       .  S
C218        H230   1.082       .  S
C219        C220   1.373       .  A
C219        H231   1.082       .  S
C220        H232   1.082       .  S
C221        C222   1.372       .  A
C221        H233   1.083       .  S
C222        H234   1.082       .  S
C223       C2539   1.482       .  S
C224       C2526   1.482       .  S
C225       C2516   1.484       .  S
C226       C2719   1.483       .  S
N237        N238   1.321       .  A
N237        C241   1.345       .  A
N237       Cu245   2.073       .  S
N238        C239   1.343       .  A
N238       Cu244   2.072       .  S
C239        C240   1.387       .  A
C239        H242   1.082       .  S
C240        C241   1.387       .  A
C240       C2529   1.484       .  S
C241        H243   1.081       .  S
Cu244       N247   2.072       .  S
Cu245       N255   2.074       .  S
Cu246       N248   2.081       .  S
Cu246       N254   2.082       .  S
N247        N248   1.320       .  A
N247        C251   1.343       .  A
N248        C249   1.347       .  A
C249        C250   1.391       .  A
C249        H252   1.080       .  S
C250        C251   1.388       .  A
C250       C2496   1.491       .  S
C251        H253   1.081       .  S
N254        N255   1.323       .  A
N254        C258   1.345       .  A
N255        C256   1.345       .  A
C256        C257   1.385       .  A
C256        H259   1.082       .  S
C257        C258   1.386       .  A
C257       C2509   1.482       .  S
C258        H260   1.082       .  S
N261        N262   1.321       .  A
N261        C265   1.350       .  A
N261       Cu269   2.093       .  S
N262        C263   1.342       .  A
N262       Cu268   2.060       .  S
C263        C264   1.384       .  A
C263        H266   1.082       .  S
C264        C265   1.391       .  A
C264       C2476   1.485       .  S
C265        H267   1.082       .  S
Cu268       N271   2.060       .  S
Cu269       N279   2.093       .  S
Cu270       N272   2.068       .  S
Cu270       N278   2.070       .  S
N271        N272   1.321       .  A
N271        C275   1.341       .  A
N272        C273   1.345       .  A
C273        C274   1.385       .  A
C273        H276   1.082       .  S
C274        C275   1.382       .  A
C274       C2569   1.474       .  S
C275        H277   1.082       .  S
N278        N279   1.324       .  A
N278        C282   1.344       .  A
N279        C280   1.347       .  A
C280        C281   1.386       .  A
C280        H283   1.082       .  S
C281        C282   1.383       .  A
C281       C2486   1.480       .  S
C282        H284   1.082       .  S
N285        C290   1.355       .  A
N285        C289   1.354       .  A
N285        H317   1.040       .  S
N286        C293   1.351       .  A
N286        C294   1.352       .  A
N287        C292   1.353       .  A
N287        C291   1.355       .  A
N287        H318   1.039       .  S
N288        C295   1.353       .  A
N288        C296   1.353       .  A
C289        C297   1.387       .  A
C289        C305   1.416       .  A
C290        C306   1.417       .  A
C290        C298   1.387       .  A
C291        C299   1.386       .  A
C291        C308   1.416       .  A
C292        C307   1.417       .  A
C292        C300   1.388       .  A
C293        C305   1.412       .  A
C293        C301   1.386       .  A
C294        C308   1.414       .  A
C294        C302   1.387       .  A
C295        C303   1.386       .  A
C295        C306   1.415       .  A
C296        C304   1.387       .  A
C296        C307   1.415       .  A
C297        C298   1.376       .  A
C297        H309   1.082       .  S
C298        H310   1.082       .  S
C299        C300   1.376       .  A
C299        H311   1.082       .  S
C300        H312   1.082       .  S
C301        C302   1.372       .  A
C301        H313   1.082       .  S
C302        H314   1.082       .  S
C303        C304   1.372       .  A
C303        H315   1.082       .  S
C304        H316   1.082       .  S
C305       C2499   1.486       .  S
C306       C2479   1.493       .  S
C307       C2689   1.488       .  S
C308       C2649   1.488       .  S
N319        N320   1.322       .  A
N319        C323   1.352       .  A
N319       Cu327   2.099       .  S
N320        C321   1.343       .  A
N320       Cu326   2.085       .  S
C321        C322   1.390       .  A
C321        H324   1.079       .  S
C322        C323   1.395       .  A
C322       C2456   1.500       .  S
C323        H325   1.082       .  S
Cu326       N329   2.084       .  S
Cu327       N337   2.099   1_545  S
Cu328       N330   2.062       .  S
Cu328       N336   2.062   1_545  S
N329        N330   1.318       .  A
N329        C333   1.346       .  A
N330        C331   1.345       .  A
C331        C332   1.388       .  A
C331        H334   1.081       .  S
C332        C333   1.392       .  A
C332       C2559   1.490       .  S
C333        H335   1.081       .  S
N336        N337   1.322       .  A
N336        C340   1.340       .  A
N337        C338   1.349       .  A
C338        C339   1.393       .  A
C338        H341   1.081       .  S
C339        C340   1.384       .  A
C339       C2469   1.491       .  S
C340        H342   1.080       .  S
N343        N344   1.322       .  A
N343        C347   1.347       .  A
N343       Cu351   2.090       .  S
N344        C345   1.342       .  A
N344       Cu350   2.066       .  S
C345        C346   1.386       .  A
C345        H348   1.081       .  S
C346        C347   1.392       .  A
C346       C2436   1.490       .  S
C347        H349   1.080       .  S
Cu350       N353   2.065       .  S
Cu351       N361   2.090       .  S
Cu352       N354   2.082       .  S
Cu352       N360   2.084       .  S
N353        N354   1.320       .  A
N353        C357   1.344       .  A
N354        C355   1.346       .  A
C355        C356   1.388       .  A
C355        H358   1.081       .  S
C356        C357   1.386       .  A
C356       C2519   1.482       .  S
C357        H359   1.082       .  S
N360        N361   1.322       .  A
N360        C364   1.344       .  A
N361        C362   1.350       .  A
C362        C363   1.390       .  A
C362        H365   1.082       .  S
C363        C364   1.388       .  A
C363       C2446   1.493       .  S
C364        H366   1.081       .  S
N367        N368   1.322       .  A
N367        C371   1.349       .  A
N367       Cu375   2.085       .  S
N368        C369   1.345       .  A
N368       Cu374   2.086       .  S
C369        C370   1.389       .  A
C369        H372   1.081       .  S
C370        C371   1.390       .  A
C370       C2449   1.493       .  S
C371        H373   1.081       .  S
Cu374       N377   2.085       .  S
Cu375       N385   2.085       .  S
Cu376       N378   2.069       .  S
Cu376       N384   2.069       .  S
N377        N378   1.321       .  A
N377        C381   1.346       .  A
N378        C379   1.346       .  A
C379        C380   1.385       .  A
C379        H382   1.082       .  S
C380        C381   1.388       .  A
C380       C2426   1.483       .  S
C381        H383   1.081       .  S
N384        N385   1.322       .  A
N384        C388   1.343       .  A
N385        C386   1.347       .  A
C386        C387   1.388       .  A
C386        H389   1.081       .  S
C387        C388   1.385       .  A
C387       C2466   1.485       .  S
C388        H390   1.082       .  S
O391       Cu399   2.013       .  S
O391        C401   1.279       .  A
O392       Cu399   2.011       .  S
O392        C402   1.279       .  A
O393       Cu399   2.017       .  S
O393        C403   1.278       .  A
O394       Cu399   2.019       .  S
O394        C404   1.279       .  A
O395       Cu400   2.007       .  S
O395        C404   1.278       .  A
O396       Cu400   2.009       .  S
O396        C403   1.279       .  A
O397       Cu400   2.005       .  S
O397        C402   1.277       .  A
O398       Cu400   1.999       .  S
O398        C401   1.277       .  A
Cu399      Cu400   2.369       .  S
C401       C2629   1.479       .  S
C402       C2406   1.484       .  S
C403       C2416   1.489       .  S
C404       C2439   1.484       .  S
O405       Cu413   2.025       .  S
O405        C415   1.280       .  A
O406       Cu413   2.026       .  S
O406        C416   1.280       .  A
O407       Cu413   2.021       .  S
O407        C417   1.280       .  A
O408       Cu413   2.023       .  S
O408        C418   1.279       .  A
O409       Cu414   2.005       .  S
O409        C418   1.278       .  A
O410       Cu414   2.006       .  S
O410        C417   1.277       .  A
O411       Cu414   2.014       .  S
O411        C416   1.279       .  A
O412       Cu414   2.011       .  S
O412        C415   1.278       .  A
Cu413      Cu414   2.366       .  S
C415       C2399   1.491       .  S
C416       C2459   1.493       .  S
C417       C2669   1.488       .  S
C418       C2389   1.488       .  S
O419       Cu427   2.029       .  S
O419        C429   1.280       .  A
O420       Cu427   2.022       .  S
O420        C430   1.280       .  A
O421       Cu427   2.022       .  S
O421        C431   1.279       .  A
O422       Cu427   2.017       .  S
O422        C432   1.279       .  A
O423       Cu428   2.012       .  S
O423        C432   1.279       .  A
O424       Cu428   2.006       .  S
O424        C431   1.278       .  A
O425       Cu428   2.007       .  S
O425        C430   1.278       .  A
O426       Cu428   2.010       .  S
O426        C429   1.278       .  A
Cu427      Cu428   2.367       .  S
C429       C2696   1.491       .  S
C430       C2366   1.487       .  S
C431       C2376   1.486       .  S
C432       C2596   1.489       .  S
N433        N434   1.322       .  A
N433        C437   1.348       .  A
N433       Cu441   2.085       .  S
N434        C435   1.341       .  A
N434       Cu440   2.063       .  S
C435        C436   1.383       .  A
C435        H438   1.081       .  S
C436        C437   1.388       .  A
C436       C2379   1.483       .  S
C437        H439   1.082       .  S
Cu440       N443   2.062       .  S
Cu441       N451   2.085       .  S
Cu442       N444   2.062       .  S
Cu442       N450   2.063       .  S
N443        N444   1.319       .  A
N443        C447   1.343       .  A
N444        C445   1.344       .  A
C445        C446   1.385       .  A
C445        H448   1.082       .  S
C446        C447   1.384       .  A
C446       C2356   1.475       .  S
C447        H449   1.082       .  S
N450        N451   1.320       .  A
N450        C454   1.339       .  A
N451        C452   1.347       .  A
C452        C453   1.394       .  A
C452        H455   1.079       .  S
C453        C454   1.389       .  A
C453       C2349   1.495       .  S
C454        H456   1.080       .  S
N457        N458   1.323       .  A
N457        C461   1.349       .  A
N457       Cu465   2.093       .  S
N458        C459   1.344       .  A
N458       Cu464   2.079       .  S
C459        C460   1.387       .  A
C459        H462   1.082       .  S
C460        C461   1.391       .  A
C460       C2396   1.491       .  S
C461        H463   1.081       .  S
Cu464       N467   2.077       .  S
Cu465       N475   2.093       .  S
Cu466       N468   2.067       .  S
Cu466       N474   2.068       .  S
N467        N468   1.319       .  A
N467        C471   1.345       .  A
N468        C469   1.345       .  A
C469        C470   1.388       .  A
C469        H472   1.082       .  S
C470        C471   1.390       .  A
C470       C2336   1.488       .  S
C471        H473   1.081       .  S
N474        N475   1.322       .  A
N474        C478   1.340   1_655  A
N475        C476   1.351   1_655  A
C476        C477   1.393       .  A
C476        H479   1.082       .  S
C477        C478   1.386       .  A
C477       C2326   1.491       .  S
C478        H480   1.080       .  S
N481        N482   1.322       .  A
N481        C485   1.348       .  A
N481       Cu489   2.082       .  S
N482        C483   1.341       .  A
N482       Cu488   2.067       .  S
C483        C484   1.384       .  A
C483        H486   1.081       .  S
C484        C485   1.387       .  A
C484       C2346   1.483       .  S
C485        H487   1.082       .  S
Cu488       N491   2.066       .  S
Cu489       N499   2.082       .  S
Cu490       N492   2.071       .  S
Cu490       N498   2.073       .  S
N491        N492   1.320       .  A
N491        C495   1.344       .  A
N492        C493   1.344       .  A
C493        C494   1.386       .  A
C493        H496   1.081       .  S
C494        C495   1.386       .  A
C494       C2316   1.481       .  S
C495        H497   1.082       .  S
N498        N499   1.322       .  A
N498        C502   1.343       .  A
N499        C500   1.348       .  A
C500        C501   1.387       .  A
C500        H503   1.082       .  S
C501        C502   1.385       .  A
C501       C2329   1.482       .  S
C502        H504   1.082       .  S
N505        C510   1.352       .  A
N505        C509   1.354       .  A
N505        H537   1.041       .  S
N506        C513   1.350       .  A
N506        C514   1.350       .  A
N507        C512   1.354       .  A
N507        C511   1.353       .  A
N507        H538   1.040       .  S
N508        C515   1.351       .  A
N508        C516   1.352       .  A
C509        C517   1.387       .  A
C509        C525   1.415       .  A
C510        C526   1.414       .  A
C510        C518   1.387       .  A
C511        C519   1.387       .  A
C511        C528   1.415       .  A
C512        C527   1.416       .  A
C512        C520   1.387       .  A
C513        C525   1.411       .  A
C513        C521   1.386       .  A
C514        C528   1.411       .  A
C514        C522   1.387       .  A
C515        C523   1.386       .  A
C515        C526   1.412       .  A
C516        C524   1.386       .  A
C516        C527   1.413       .  A
C517        C518   1.376       .  A
C517        H529   1.082       .  S
C518        H530   1.082       .  S
C519        C520   1.377       .  A
C519        H531   1.082       .  S
C520        H532   1.082       .  S
C521        C522   1.373       .  A
C521        H533   1.082       .  S
C522        H534   1.082       .  S
C523        C524   1.373       .  A
C523        H535   1.082       .  S
C524        H536   1.082       .  S
C525       C2306   1.489       .  S
C526       C2289   1.485       .  S
C527       C2276   1.493       .  S
C528       C2296   1.486       .  S
N539        N540   1.319       .  A
N539        C543   1.347       .  A
N539       Cu547   2.071       .  S
N540        C541   1.338       .  A
N540       Cu546   2.050       .  S
C541        C542   1.382       .  A
C541        H544   1.081       .  S
C542        C543   1.388       .  A
C542       C2256   1.477       .  S
C543        H545   1.082       .  S
Cu546       N549   2.050       .  S
Cu547       N557   2.074       .  S
Cu548       N550   2.085       .  S
Cu548       N556   2.087       .  S
N549        N550   1.319       .  A
N549        C553   1.340       .  A
N550        C551   1.349       .  A
C551        C552   1.391       .  A
C551        H554   1.081       .  S
C552        C553   1.382       .  A
C552       C2309   1.482       .  S
C553        H555   1.082       .  S
N556        N557   1.324       .  A
N556        C560   1.345   1_556  A
N557        C558   1.345   1_556  A
C558        C559   1.384       .  A
C558        H561   1.082       .  S
C559        C560   1.386       .  A
C559       C2266   1.482       .  S
C560        H562   1.081       .  S
N563        N564   1.324       .  A
N563        C567   1.347       .  A
N563       Cu571   2.081       .  S
N564        C565   1.344       .  A
N564       Cu570   2.083       .  S
C565        C566   1.386       .  A
C565        H568   1.081       .  S
C566        C567   1.386       .  A
C566       C2386   1.484       .  S
C567        H569   1.082       .  S
Cu570       N573   2.082       .  S
Cu571       N581   2.080   1_545  S
Cu572       N574   2.062       .  S
Cu572       N580   2.062   1_545  S
N573        N574   1.319       .  A
N573        C577   1.347       .  A
N574        C575   1.342       .  A
C575        C576   1.387       .  A
C575        H578   1.081       .  S
C576        C577   1.393       .  A
C576       C2299   1.490       .  S
C577        H579   1.080       .  S
N580        N581   1.320       .  A
N580        C584   1.339       .  A
N581        C582   1.348       .  A
C582        C583   1.392       .  A
C582        H585   1.081       .  S
C583        C584   1.387       .  A
C583       C2249   1.490       .  S
C584        H586   1.080       .  S
N587        N588   1.324       .  A
N587        C591   1.347       .  A
N587       Cu595   2.092       .  S
N588        C589   1.342       .  A
N588       Cu594   2.068       .  S
C589        C590   1.383       .  A
C589        H592   1.082       .  S
C590        C591   1.390       .  A
C590       C2409   1.485       .  S
C591        H593   1.081       .  S
Cu594       N597   2.067       .  S
Cu595       N605   2.091       .  S
Cu596       N598   2.056       .  S
Cu596       N604   2.055       .  S
N597        N598   1.318       .  A
N597        C601   1.345       .  A
N598        C599   1.342       .  A
C599        C600   1.386       .  A
C599        H602   1.082       .  S
C600        C601   1.389       .  A
C600       C2236   1.483       .  S
C601        H603   1.081       .  S
N604        N605   1.320       .  A
N604        C608   1.337       .  A
N605        C606   1.351       .  A
C606        C607   1.394       .  A
C606        H609   1.081       .  S
C607        C608   1.383       .  A
C607       C2226   1.489       .  S
C608        H610   1.081       .  S
N611        N612   1.322       .  A
N611        C615   1.347       .  A
N611       Cu619   2.083       .  S
N612        C613   1.342       .  A
N612       Cu618   2.074       .  S
C613        C614   1.388       .  A
C613        H616   1.080       .  S
C614        C615   1.390       .  A
C614       C2229   1.491       .  S
C615        H617   1.081       .  S
Cu618       N621   2.073       .  S
Cu619       N629   2.083       .  S
Cu620       N622   2.072       .  S
Cu620       N628   2.073       .  S
N621        N622   1.319       .  A
N621        C625   1.344       .  A
N622        C623   1.347       .  A
C623        C624   1.387       .  A
C623        H626   1.082       .  S
C624        C625   1.387       .  A
C624       C2216   1.484       .  S
C625        H627   1.081       .  S
N628        N629   1.323       .  A
N628        C632   1.340       .  A
N629        C630   1.350       .  A
C630        C631   1.387       .  A
C630        H633   1.082       .  S
C631        C632   1.382       .  A
C631       C2246   1.480       .  S
C632        H634   1.082       .  S
N635        C640   1.352       .  A
N635        C639   1.355       .  A
N635        H667   1.040       .  S
N636        C643   1.352       .  A
N636        C644   1.351       .  A
N637        C642   1.353       .  A
N637        C641   1.352       .  A
N637        H668   1.038       .  S
N638        C645   1.351       .  A
N638        C646   1.352       .  A
C639        C647   1.387       .  A
C639        C655   1.416       .  A
C640        C656   1.416       .  A
C640        C648   1.388       .  A
C641        C649   1.387       .  A
C641        C658   1.413       .  A
C642        C657   1.413       .  A
C642        C650   1.386       .  A
C643        C655   1.413       .  A
C643        C651   1.386       .  A
C644        C658   1.413       .  A
C644        C652   1.387       .  A
C645        C653   1.387       .  A
C645        C656   1.413       .  A
C646        C654   1.386       .  A
C646        C657   1.413       .  A
C647        C648   1.375       .  A
C647        H659   1.082       .  S
C648        H660   1.082       .  S
C649        C650   1.376       .  A
C649        H661   1.082       .  S
C650        H662   1.082       .  S
C651        C652   1.371       .  A
C651        H663   1.082       .  S
C652        H664   1.082       .  S
C653        C654   1.371       .  A
C653        H665   1.082       .  S
C654        H666   1.082       .  S
C655       C2206   1.491       .  S
C656       C2259   1.484       .  S
C657       C2339   1.485       .  S
C658       C2196   1.479       .  S
N669        N670   1.320       .  A
N669        C673   1.348       .  A
N669       Cu677   2.082       .  S
N670        C671   1.340       .  A
N670       Cu676   2.057       .  S
C671        C672   1.383       .  A
C671        H674   1.081       .  S
C672        C673   1.389       .  A
C672       C2176   1.482       .  S
C673        H675   1.082       .  S
Cu676       N679   2.058       .  S
Cu677       N687   2.084       .  S
Cu678       N680   2.085       .  S
Cu678       N686   2.086       .  S
N679        N680   1.320       .  A
N679        C683   1.341       .  A
N680        C681   1.349       .  A
C681        C682   1.391       .  A
C681        H684   1.082       .  S
C682        C683   1.384       .  A
C682       C2209   1.485       .  S
C683        H685   1.081       .  S
N686        N687   1.324       .  A
N686        C690   1.345   1_556  A
N687        C688   1.346   1_556  A
C688        C689   1.387       .  A
C688        H691   1.081       .  S
C689        C690   1.387       .  A
C689       C2186   1.487       .  S
C690        H692   1.082       .  S
N693        C698   1.352       .  A
N693        C697   1.351       .  A
N693        H725   1.037       .  S
N694        C701   1.351       .  A
N694        C702   1.352       .  A
N695        C700   1.352       .  A
N695        C699   1.353       .  A
N695        H726   1.038       .  S
N696        C703   1.353       .  A
N696        C704   1.350       .  A
C697        C705   1.387       .  A
C697        C713   1.412       .  A
C698        C714   1.414       .  A
C698        C706   1.387       .  A
C699        C707   1.386       .  A
C699        C716   1.412       .  A
C700        C715   1.415       .  A
C700        C708   1.388       .  A
C701        C713   1.413       .  A
C701        C709   1.387       .  A
C702        C716   1.411       .  A
C702        C710   1.386       .  A
C703        C711   1.385       .  A
C703        C714   1.414       .  A
C704        C712   1.387       .  A
C704        C715   1.414       .  A
C705        C706   1.376       .  A
C705        H717   1.082       .  S
C706        H718   1.082       .  S
C707        C708   1.375       .  A
C707        H719   1.082       .  S
C708        H720   1.082       .  S
C709        C710   1.371       .  A
C709        H721   1.082       .  S
C710        H722   1.082       .  S
C711        C712   1.374       .  A
C711        H723   1.082       .  S
C712        H724   1.082       .  S
C713       C2179   1.478       .  S
C714       C2166   1.487       .  S
C715       C2359   1.479       .  S
C716       C2239   1.482       .  S
N727        N728   1.321       .  A
N727        C731   1.349       .  A
N727       Cu735   2.088       .  S
N728        C729   1.342       .  A
N728       Cu734   2.061       .  S
C729        C730   1.383       .  A
C729        H732   1.082       .  S
C730        C731   1.390       .  A
C730       C2169   1.483       .  S
C731        H733   1.082       .  S
Cu734       N737   2.060       .  S
Cu735       N745   2.088       .  S
Cu736       N738   2.069       .  S
Cu736       N744   2.070       .  S
N737        N738   1.319       .  A
N737        C741   1.339       .  A
N738        C739   1.347       .  A
C739        C740   1.388       .  A
C739        H742   1.082       .  S
C740        C741   1.384       .  A
C740       C2286   1.481       .  S
C741        H743   1.081       .  S
N744        N745   1.324       .  A
N744        C748   1.344   1_556  A
N745        C746   1.345   1_556  A
C746        C747   1.387       .  A
C746        H749   1.082       .  S
C747        C748   1.383       .  A
C747       C2159   1.481       .  S
C748        H750   1.081       .  S
N751        N752   1.323       .  A
N751        C755   1.350   1_655  A
N751       Cu759   2.093       .  S
N752        C753   1.341   1_655  A
N752       Cu758   2.061       .  S
C753        C754   1.381       .  A
C753        H756   1.082       .  S
C754        C755   1.389       .  A
C754       C2146   1.480       .  S
C755        H757   1.082       .  S
Cu758       N761   2.060       .  S
Cu759       N769   2.094       .  S
Cu760       N762   2.071       .  S
Cu760       N768   2.073       .  S
N761        N762   1.318       .  A
N761        C765   1.342       .  A
N762        C763   1.345       .  A
C763        C764   1.390       .  A
C763        H766   1.080       .  S
C764        C765   1.387       .  A
C764       C2199   1.486       .  S
C765        H767   1.081       .  S
N768        N769   1.322       .  A
N768        C772   1.342       .  A
N769        C770   1.349       .  A
C770        C771   1.393       .  A
C770        H773   1.081       .  S
C771        C772   1.388       .  A
C771       C2419   1.496       .  S
C772        H774   1.079       .  S
N775        N776   1.321       .  A
N775        C779   1.346       .  A
N775       Cu783   2.085   1_565  S
N776        C777   1.343       .  A
N776       Cu782   2.080   1_565  S
C777        C778   1.392       .  A
C777        H780   1.080       .  S
C778        C779   1.393       .  A
C778       C2139   1.499       .  S
C779        H781   1.079       .  S
Cu782       N785   2.079       .  S
Cu783       N793   2.085       .  S
Cu784       N786   2.076       .  S
Cu784       N792   2.076       .  S
N785        N786   1.321       .  A
N785        C789   1.346       .  A
N786        C787   1.345       .  A
C787        C788   1.386       .  A
C787        H790   1.082       .  S
C788        C789   1.388       .  A
C788       C2279   1.485       .  S
C789        H791   1.082       .  S
N792        N793   1.320       .  A
N792        C796   1.343       .  A
N793        C794   1.347       .  A
C794        C795   1.394       .  A
C794        H797   1.080       .  S
C795        C796   1.390       .  A
C795       C2369   1.497       .  S
C796        H798   1.081       .  S
N799        N800   1.322       .  A
N799        C803   1.349       .  A
N799       Cu807   2.087       .  S
N800        C801   1.341       .  A
N800       Cu806   2.064       .  S
C801        C802   1.383       .  A
C801        H804   1.082       .  S
C802        C803   1.389       .  A
C802       C2136   1.482       .  S
C803        H805   1.082       .  S
Cu806       N809   2.063       .  S
Cu807       N817   2.087       .  S
Cu808       N810   2.073       .  S
Cu808       N816   2.075       .  S
N809        N810   1.319       .  A
N809        C813   1.343       .  A
N810        C811   1.344       .  A
C811        C812   1.390       .  A
C811        H814   1.081       .  S
C812        C813   1.388       .  A
C812       C2126   1.488       .  S
C813        H815   1.080       .  S
N816        N817   1.322       .  A
N816        C820   1.343       .  A
N817        C818   1.348       .  A
C818        C819   1.389       .  A
C818        H821   1.081       .  S
C819        C820   1.387       .  A
C819       C2149   1.488       .  S
C820        H822   1.081       .  S
N823        N824   1.323       .  A
N823        C827   1.346       .  A
N823       Cu831   2.078       .  S
N824        C825   1.342       .  A
N824       Cu830   2.072       .  S
C825        C826   1.386       .  A
C825        H828   1.081       .  S
C826        C827   1.387       .  A
C826       C2096   1.484       .  S
C827        H829   1.082       .  S
Cu830       N833   2.071       .  S
Cu831       N841   2.078       .  S
Cu832       N834   2.057       .  S
Cu832       N840   2.057       .  S
N833        N834   1.318       .  A
N833        C837   1.345       .  A
N834        C835   1.342       .  A
C835        C836   1.386       .  A
C835        H838   1.081       .  S
C836        C837   1.390       .  A
C836       C2116   1.484       .  S
C837        H839   1.081       .  S
N840        N841   1.322       .  A
N840        C844   1.338   1_455  A
N841        C842   1.349   1_455  A
C842        C843   1.387       .  A
C842        H845   1.082       .  S
C843        C844   1.380       .  A
C843       C2106   1.476       .  S
C844        H846   1.082       .  S
N847        N848   1.324       .  A
N847        C851   1.346       .  A
N847       Cu855   2.085       .  S
N848        C849   1.345       .  A
N848       Cu854   2.081       .  S
C849        C850   1.387       .  A
C849        H852   1.081       .  S
C850        C851   1.387       .  A
C850       C2066   1.487       .  S
C851        H853   1.082       .  S
Cu854       N857   2.080       .  S
Cu855       N865   2.084       .  S
Cu856       N858   2.051       .  S
Cu856       N864   2.051   1_565  S
N857        N858   1.320       .  A
N857        C861   1.346       .  A
N858        C859   1.341       .  A
C859        C860   1.381       .  A
C859        H862   1.081       .  S
C860        C861   1.388       .  A
C860       C2089   1.478       .  S
C861        H863   1.082       .  S
N864        N865   1.319   1_545  A
N864        C868   1.339       .  A
N865        C866   1.347   1_565  A
C866        C867   1.395       .  A
C866        H869   1.079       .  S
C867        C868   1.386       .  A
C867       C2076   1.491       .  S
C868        H870   1.081       .  S
N871        N872   1.322       .  A
N871        C875   1.346       .  A
N871       Cu879   2.071       .  S
N872        C873   1.342       .  A
N872       Cu878   2.076       .  S
C873        C874   1.388       .  A
C873        H876   1.080       .  S
C874        C875   1.388       .  A
C874       C2109   1.486       .  S
C875        H877   1.081       .  S
Cu878       N881   2.076       .  S
Cu879       N889   2.071       .  S
Cu880       N882   2.067       .  S
Cu880       N888   2.067       .  S
N881        N882   1.320       .  A
N881        C885   1.346       .  A
N882        C883   1.343       .  A
C883        C884   1.386       .  A
C883        H886   1.081       .  S
C884        C885   1.389       .  A
C884       C2489   1.485       .  S
C885        H887   1.082       .  S
N888        N889   1.322       .  A
N888        C892   1.342       .  A
N889        C890   1.346       .  A
C890        C891   1.383       .  A
C890        H893   1.082       .  S
C891        C892   1.383       .  A
C891       C2079   1.474       .  S
C892        H894   1.082       .  S
N895        N896   1.323       .  A
N895        C899   1.349       .  A
N895       Cu903   2.088       .  S
N896        C897   1.342       .  A
N896       Cu902   2.078       .  S
C897        C898   1.386       .  A
C897        H900   1.081       .  S
C898        C899   1.390       .  A
C898       C2036   1.489       .  S
C899        H901   1.082       .  S
Cu902       N905   2.077       .  S
Cu903       N913   2.087       .  S
Cu904       N906   2.055       .  S
Cu904       N912   2.056       .  S
N905        N906   1.319       .  A
N905        C909   1.347       .  A
N906        C907   1.341       .  A
C907        C908   1.384       .  A
C907        H910   1.082       .  S
C908        C909   1.390       .  A
C908       C2056   1.481       .  S
C909        H911   1.081       .  S
N912        N913   1.323       .  A
N912        C916   1.340       .  A
N913        C914   1.349       .  A
C914        C915   1.386       .  A
C914        H917   1.082       .  S
C915        C916   1.378       .  A
C915       C2046   1.471       .  S
C916        H918   1.082       .  S
N919        N920   1.325       .  A
N919        C923   1.348       .  A
N919       Cu927   2.093       .  S
N920        C921   1.342       .  A
N920       Cu926   2.073       .  S
C921        C922   1.383       .  A
C921        H924   1.081       .  S
C922        C923   1.388       .  A
C922       C2009   1.483       .  S
C923        H925   1.082       .  S
Cu926       N929   2.072       .  S
Cu927       N937   2.091   1_565  S
Cu928       N930   2.059       .  S
Cu928       N936   2.058   1_565  S
N929        N930   1.318       .  A
N929        C933   1.347       .  A
N930        C931   1.342       .  A
C931        C932   1.385       .  A
C931        H934   1.082       .  S
C932        C933   1.389       .  A
C932       C2029   1.481       .  S
C933        H935   1.082       .  S
N936        N937   1.320       .  A
N936        C940   1.338       .  A
N937        C938   1.351       .  A
C938        C939   1.395       .  A
C938        H941   1.082       .  S
C939        C940   1.385       .  A
C939       C2016   1.490       .  S
C940        H942   1.080       .  S
N943        N944   1.322       .  A
N943        C947   1.346       .  A
N943       Cu951   2.074       .  S
N944        C945   1.342       .  A
N944       Cu950   2.071       .  S
C945        C946   1.385       .  A
C945        H948   1.082       .  S
C946        C947   1.387       .  A
C946       C2049   1.482       .  S
C947        H949   1.081       .  S
Cu950       N953   2.071       .  S
Cu951       N961   2.074       .  S
Cu952       N954   2.077       .  S
Cu952       N960   2.078       .  S
N953        N954   1.320       .  A
N953        C957   1.345       .  A
N954        C955   1.346       .  A
C955        C956   1.388       .  A
C955        H958   1.082       .  S
C956        C957   1.387       .  A
C956       C2546   1.485       .  S
C957        H959   1.081       .  S
N960        N961   1.323       .  A
N960        C964   1.343       .  A
N961        C962   1.347       .  A
C962        C963   1.383       .  A
C962        H965   1.082       .  S
C963        C964   1.383       .  A
C963       C2019   1.475       .  S
C964        H966   1.082       .  S
N967        C972   1.350       .  A
N967        C971   1.352       .  A
N967        H999   1.039       .  S
N968        C975   1.354       .  A
N968        C976   1.351       .  A
N969        C974   1.354       .  A
N969        C973   1.351       .  A
N969       H1000   1.038       .  S
N970        C977   1.350       .  A
N970        C978   1.351       .  A
C971        C979   1.386       .  A
C971        C987   1.413       .  A
C972        C988   1.412       .  A
C972        C980   1.387       .  A
C973        C981   1.388       .  A
C973        C990   1.414       .  A
C974        C989   1.414       .  A
C974        C982   1.386       .  A
C975        C987   1.416       .  A
C975        C983   1.386       .  A
C976        C990   1.414       .  A
C976        C984   1.387       .  A
C977        C985   1.387       .  A
C977        C988   1.412       .  A
C978        C986   1.386       .  A
C978        C989   1.412       .  A
C979        C980   1.376       .  A
C979        H991   1.082       .  S
C980        H992   1.082       .  S
C981        C982   1.377       .  A
C981        H993   1.082       .  S
C982        H994   1.082       .  S
C983        C984   1.372       .  A
C983        H995   1.082       .  S
C984        H996   1.082       .  S
C985        C986   1.371       .  A
C985        H997   1.082       .  S
C986        H998   1.082       .  S
C987       C1986   1.492       .  S
C988       C1996   1.479       .  S
C989       C2026   1.487       .  S
C990       C2086   1.480       .  S
N1001      N1002   1.321       .  A
N1001      C1005   1.345       .  A
N1001     Cu1009   2.074       .  S
N1002      C1003   1.344       .  A
N1002     Cu1008   2.071       .  S
C1003      C1004   1.387       .  A
C1003      H1006   1.081       .  S
C1004      C1005   1.387       .  A
C1004      C1976   1.483       .  S
C1005      H1007   1.082       .  S
Cu1008     N1011   2.071       .  S
Cu1009     N1019   2.075       .  S
Cu1010     N1012   2.078       .  S
Cu1010     N1018   2.078       .  S
N1011      N1012   1.322       .  A
N1011      C1015   1.343       .  A
N1012      C1013   1.346       .  A
C1013      C1014   1.387       .  A
C1013      H1016   1.081       .  S
C1014      C1015   1.385       .  A
C1014      C1989   1.483       .  S
C1015      H1017   1.082       .  S
N1018      N1019   1.322       .  A
N1018      C1022   1.346       .  A
N1019      C1020   1.344       .  A
C1020      C1021   1.386       .  A
C1020      H1023   1.082       .  S
C1021      C1022   1.387       .  A
C1021      C2429   1.483       .  S
C1022      H1024   1.082       .  S
N1025      C1030   1.353       .  A
N1025      C1029   1.352       .  A
N1025      H1057   1.034       .  S
N1026      C1033   1.352       .  A
N1026      C1034   1.351       .  A
N1027      C1032   1.353       .  A
N1027      C1031   1.353       .  A
N1027      H1058   1.036       .  S
N1028      C1035   1.352       .  A
N1028      C1036   1.351       .  A
C1029      C1037   1.386       .  A
C1029      C1045   1.412       .  A
C1030      C1046   1.412       .  A
C1030      C1038   1.386       .  A
C1031      C1039   1.386       .  A
C1031      C1048   1.413       .  A
C1032      C1047   1.413       .  A
C1032      C1040   1.387       .  A
C1033      C1045   1.412       .  A
C1033      C1041   1.386       .  A
C1034      C1048   1.412       .  A
C1034      C1042   1.386       .  A
C1035      C1043   1.386       .  A
C1035      C1046   1.413       .  A
C1036      C1044   1.386       .  A
C1036      C1047   1.412       .  A
C1037      C1038   1.376       .  A
C1037      H1049   1.082       .  S
C1038      H1050   1.082       .  S
C1039      C1040   1.377       .  A
C1039      H1051   1.082       .  S
C1040      H1052   1.082       .  S
C1041      C1042   1.373       .  A
C1041      H1053   1.082       .  S
C1042      H1054   1.082       .  S
C1043      C1044   1.374       .  A
C1043      H1055   1.082       .  S
C1044      H1056   1.082       .  S
C1045      C1956   1.484       .  S
C1046      C1966   1.486       .  S
C1047      C2119   1.482       .  S
C1048      C1949   1.484       .  S
N1059      N1060   1.320       .  A
N1059      C1063   1.346       .  A
N1059     Cu1067   2.072       .  S
N1060      C1061   1.340       .  A
N1060     Cu1066   2.057       .  S
C1061      C1062   1.383       .  A
C1061      H1064   1.081       .  S
C1062      C1063   1.386       .  A
C1062      C1999   1.476       .  S
C1063      H1065   1.082       .  S
Cu1066     N1069   2.057       .  S
Cu1067     N1077   2.074       .  S
Cu1068     N1070   2.082       .  S
Cu1068     N1076   2.083       .  S
N1069      N1070   1.320       .  A
N1069      C1073   1.340       .  A
N1070      C1071   1.349       .  A
C1071      C1072   1.390       .  A
C1071      H1074   1.081       .  S
C1072      C1073   1.383       .  A
C1072      C1959   1.482       .  S
C1073      H1075   1.082       .  S
N1076      N1077   1.323       .  A
N1076      C1080   1.345       .  A
N1077      C1078   1.345       .  A
C1078      C1079   1.386       .  A
C1078      H1081   1.082       .  S
C1079      C1080   1.388       .  A
C1079      C2586   1.486       .  S
C1080      H1082   1.081       .  S
N1083      C1088   1.354       .  A
N1083      C1087   1.352       .  A
N1083      H1115   1.037       .  S
N1084      C1091   1.353       .  A
N1084      C1092   1.353       .  A
N1085      C1090   1.352       .  A
N1085      C1089   1.353       .  A
N1085      H1116   1.038       .  S
N1086      C1093   1.353       .  A
N1086      C1094   1.351       .  A
C1087      C1095   1.388       .  A
C1087      C1103   1.418       .  A
C1088      C1104   1.415       .  A
C1088      C1096   1.386       .  A
C1089      C1097   1.387       .  A
C1089      C1106   1.413       .  A
C1090      C1105   1.413       .  A
C1090      C1098   1.387       .  A
C1091      C1103   1.418       .  A
C1091      C1099   1.388       .  A
C1092      C1106   1.413       .  A
C1092      C1100   1.384       .  A
C1093      C1101   1.386       .  A
C1093      C1104   1.413       .  A
C1094      C1102   1.387       .  A
C1094      C1105   1.413       .  A
C1095      C1096   1.378       .  A
C1095      H1107   1.082       .  S
C1096      H1108   1.082       .  S
C1097      C1098   1.376       .  A
C1097      H1109   1.082       .  S
C1098      H1110   1.082       .  S
C1099      C1100   1.372       .  A
C1099      H1111   1.082       .  S
C1100      H1112   1.082       .  S
C1101      C1102   1.371       .  A
C1101      H1113   1.082       .  S
C1102      H1114   1.082       .  S
C1103      C1979   1.489       .  S
C1104      C1936   1.489       .  S
C1105      C2059   1.481       .  S
C1106      C1926   1.487       .  S
N1117      N1118   1.320       .  A
N1117      C1121   1.349       .  A
N1117     Cu1125   2.088       .  S
N1118      C1119   1.343       .  A
N1118     Cu1124   2.067       .  S
C1119      C1120   1.386       .  A
C1119      H1122   1.082       .  S
C1120      C1121   1.392       .  A
C1120      C1939   1.489       .  S
C1121      H1123   1.081       .  S
Cu1124     N1127   2.067       .  S
Cu1125     N1135   2.089       .  S
Cu1126     N1128   2.093       .  S
Cu1126     N1134   2.095       .  S
N1127      N1128   1.322       .  A
N1127      C1131   1.342       .  A
N1128      C1129   1.351       .  A
C1129      C1130   1.390       .  A
C1129      H1132   1.082       .  S
C1130      C1131   1.382       .  A
C1130      C1969   1.482       .  S
C1131      H1133   1.082       .  S
N1134      N1135   1.324       .  A
N1134      C1138   1.347       .  A
N1135      C1136   1.347       .  A
C1136      C1137   1.389       .  A
C1136      H1139   1.081       .  S
C1137      C1138   1.390       .  A
C1137      C2659   1.494       .  S
C1138      H1140   1.082       .  S
N1141      N1142   1.322       .  A
N1141      C1145   1.347       .  A
N1141     Cu1149   2.079       .  S
N1142      C1143   1.341       .  A
N1142     Cu1148   2.078       .  S
C1143      C1144   1.390       .  A
C1143      H1146   1.080       .  S
C1144      C1145   1.392       .  A
C1144      C1906   1.495       .  S
C1145      H1147   1.079       .  S
Cu1148     N1151   2.077       .  S
Cu1149     N1159   2.078       .  S
Cu1150     N1152   2.057       .  S
Cu1150     N1158   2.058       .  S
N1151      N1152   1.318       .  A
N1151      C1155   1.346       .  A
N1152      C1153   1.342       .  A
C1153      C1154   1.386       .  A
C1153      H1156   1.081       .  S
C1154      C1155   1.390       .  A
C1154      C1929   1.486       .  S
C1155      H1157   1.082       .  S
N1158      N1159   1.322       .  A
N1158      C1162   1.339       .  A
N1159      C1160   1.348       .  A
C1160      C1161   1.385       .  A
C1160      H1163   1.082       .  S
C1161      C1162   1.379       .  A
C1161      C1916   1.471       .  S
C1162      H1164   1.082       .  S
N1165      N1166   1.322       .  A
N1165      C1169   1.349       .  A
N1165     Cu1173   2.092       .  S
N1166      C1167   1.340       .  A
N1166     Cu1172   2.071       .  S
C1167      C1168   1.387       .  A
C1167      H1170   1.081       .  S
C1168      C1169   1.393       .  A
C1168      C1886   1.492       .  S
C1169      H1171   1.080       .  S
Cu1172     N1175   2.070       .  S
Cu1173     N1183   2.091   1_455  S
Cu1174     N1176   2.065       .  S
Cu1174     N1182   2.066   1_455  S
N1175      N1176   1.319       .  A
N1175      C1179   1.347       .  A
N1176      C1177   1.342       .  A
C1177      C1178   1.385       .  A
C1177      H1180   1.082       .  S
C1178      C1179   1.388       .  A
C1178      C1946   1.480       .  S
C1179      H1181   1.082       .  S
N1182      N1183   1.321       .  A
N1182      C1186   1.342       .  A
N1183      C1184   1.348       .  A
C1184      C1185   1.392       .  A
C1184      H1187   1.081       .  S
C1185      C1186   1.386       .  A
C1185      C1896   1.490       .  S
C1186      H1188   1.081       .  S
N1189      N1190   1.322       .  A
N1189      C1193   1.347       .  A
N1189     Cu1197   2.076       .  S
N1190      C1191   1.341       .  A
N1190     Cu1196   2.071       .  S
C1191      C1192   1.385       .  A
C1191      H1194   1.082       .  S
C1192      C1193   1.387       .  A
C1192      C1919   1.482       .  S
C1193      H1195   1.081       .  S
Cu1196     N1199   2.071       .  S
Cu1197     N1207   2.076       .  S
Cu1198     N1200   2.071       .  S
Cu1198     N1206   2.072       .  S
N1199      N1200   1.320       .  A
N1199      C1203   1.345       .  A
N1200      C1201   1.344       .  A
C1201      C1202   1.387       .  A
C1201      H1204   1.081       .  S
C1202      C1203   1.387       .  A
C1202      C2506   1.483       .  S
C1203      H1205   1.082       .  S
N1206      N1207   1.321       .  A
N1206      C1210   1.343       .  A
N1207      C1208   1.345       .  A
C1208      C1209   1.390       .  A
C1208      H1211   1.081       .  S
C1209      C1210   1.389       .  A
C1209      C1899   1.491       .  S
C1210      H1212   1.080       .  S
O1213     Cu1221   2.019       .  S
O1213      C1223   1.279       .  A
O1214     Cu1221   2.025       .  S
O1214      C1224   1.279       .  A
O1215     Cu1221   2.028       .  S
O1215      C1225   1.280       .  A
O1216     Cu1221   2.033       .  S
O1216      C1226   1.281       .  A
O1217     Cu1222   1.995       .  S
O1217      C1226   1.276       .  A
O1218     Cu1222   1.989       .  S
O1218      C1225   1.276       .  A
O1219     Cu1222   2.004       .  S
O1219      C1224   1.278       .  A
O1220     Cu1222   1.998       .  S
O1220      C1223   1.277       .  A
Cu1221    Cu1222   2.367       .  S
C1223      C1869   1.482       .  S
C1224      C2039   1.488       .  S
C1225      C2099   1.484       .  S
C1226      C1876   1.489       .  S
O1227     Cu1235   2.018       .  S
O1227      C1237   1.279       .  A
O1228     Cu1235   2.022       .  S
O1228      C1238   1.280       .  A
O1229     Cu1235   2.016       .  S
O1229      C1239   1.279       .  A
O1230     Cu1235   2.015       .  S
O1230      C1240   1.279       .  A
O1231     Cu1236   2.002       .  S
O1231      C1240   1.277       .  A
O1232     Cu1236   2.002       .  S
O1232      C1239   1.278       .  A
O1233     Cu1236   2.001       .  S
O1233      C1238   1.277       .  A
O1234     Cu1236   1.997       .  S
O1234      C1237   1.278       .  A
Cu1235    Cu1236   2.368       .  S
C1237      C1846   1.484       .  S
C1238      C2069   1.485       .  S
C1239      C1909   1.483       .  S
C1240      C1856   1.485       .  S
N1241      N1242   1.324       .  A
N1241      C1245   1.345       .  A
N1241     Cu1249   2.073       .  S
N1242      C1243   1.343       .  A
N1242     Cu1248   2.080       .  S
C1243      C1244   1.385       .  A
C1243      H1246   1.081       .  S
C1244      C1245   1.384       .  A
C1244      C1866   1.480       .  S
C1245      H1247   1.082       .  S
Cu1248     N1251   2.079       .  S
Cu1249     N1259   2.072       .  S
Cu1250     N1252   2.056       .  S
Cu1250     N1258   2.057       .  S
N1251      N1252   1.318       .  A
N1251      C1255   1.346       .  A
N1252      C1253   1.342       .  A
C1253      C1254   1.386       .  A
C1253      H1256   1.080       .  S
C1254      C1255   1.392       .  A
C1254      C1836   1.487       .  S
C1255      H1257   1.081       .  S
N1258      N1259   1.321       .  A
N1258      C1262   1.339   1_455  A
N1259      C1260   1.347   1_455  A
C1260      C1261   1.386       .  A
C1260      H1263   1.082       .  S
C1261      C1262   1.380       .  A
C1261      C1829   1.473       .  S
C1262      H1264   1.082       .  S
N1265      N1266   1.323       .  A
N1265      C1269   1.345       .  A
N1265     Cu1273   2.083       .  S
N1266      C1267   1.344       .  A
N1266     Cu1272   2.078       .  S
C1267      C1268   1.387       .  A
C1267      H1270   1.080       .  S
C1268      C1269   1.388       .  A
C1268      C1859   1.488       .  S
C1269      H1271   1.081       .  S
Cu1272     N1275   2.077       .  S
Cu1273     N1283   2.082       .  S
Cu1274     N1276   2.066       .  S
Cu1274     N1282   2.066   1_565  S
N1275      N1276   1.319       .  A
N1275      C1279   1.346       .  A
N1276      C1277   1.344       .  A
C1277      C1278   1.387       .  A
C1277      H1280   1.082       .  S
C1278      C1279   1.390       .  A
C1278      C1819   1.487       .  S
C1279      H1281   1.081       .  S
N1282      N1283   1.321   1_545  A
N1282      C1286   1.339       .  A
N1283      C1284   1.350   1_565  A
C1284      C1285   1.390       .  A
C1284      H1287   1.082       .  S
C1285      C1286   1.384       .  A
C1285      C1809   1.484       .  S
C1286      H1288   1.081       .  S
N1289      N1290   1.321       .  A
N1289      C1293   1.346       .  A
N1289     Cu1297   2.067       .  S
N1290      C1291   1.340       .  A
N1290     Cu1296   2.069       .  S
C1291      C1292   1.385       .  A
C1291      H1294   1.082       .  S
C1292      C1293   1.387       .  A
C1292      C1826   1.482       .  S
C1293      H1295   1.081       .  S
Cu1296     N1299   2.068       .  S
Cu1297     N1307   2.067       .  S
Cu1298     N1300   2.079       .  S
Cu1298     N1306   2.080       .  S
N1299      N1300   1.320       .  A
N1299      C1303   1.345       .  A
N1300      C1301   1.346       .  A
C1301      C1302   1.388       .  A
C1301      H1304   1.082       .  S
C1302      C1303   1.386       .  A
C1302      C2269   1.484       .  S
C1303      H1305   1.081       .  S
N1306      N1307   1.323       .  A
N1306      C1310   1.343       .  A
N1307      C1308   1.346       .  A
C1308      C1309   1.383       .  A
C1308      H1311   1.082       .  S
C1309      C1310   1.384       .  A
C1309      C1806   1.477       .  S
C1310      H1312   1.082       .  S
N1313      N1314   1.323       .  A
N1313      C1317   1.347       .  A
N1313     Cu1321   2.084       .  S
N1314      C1315   1.344       .  A
N1314     Cu1320   2.083       .  S
C1315      C1316   1.389       .  A
C1315      H1318   1.081       .  S
C1316      C1317   1.389       .  A
C1316      C1879   1.491       .  S
C1317      H1319   1.081       .  S
Cu1320     N1323   2.081       .  S
Cu1321     N1331   2.083       .  S
Cu1322     N1324   2.058       .  S
Cu1322     N1330   2.059       .  S
N1323      N1324   1.320       .  A
N1323      C1327   1.346       .  A
N1324      C1325   1.342       .  A
C1325      C1326   1.385       .  A
C1325      H1328   1.082       .  S
C1326      C1327   1.391       .  A
C1326      C1796   1.485       .  S
C1327      H1329   1.081       .  S
N1330      N1331   1.321       .  A
N1330      C1334   1.341       .  A
N1331      C1332   1.348       .  A
C1332      C1333   1.388       .  A
C1332      H1335   1.082       .  S
C1333      C1334   1.383       .  A
C1333      C1786   1.480       .  S
C1334      H1336   1.081       .  S
N1337      N1338   1.323       .  A
N1337      C1341   1.346       .  A
N1337     Cu1345   2.081       .  S
N1338      C1339   1.343       .  A
N1338     Cu1344   2.074       .  S
C1339      C1340   1.385       .  A
C1339      H1342   1.081       .  S
C1340      C1341   1.386       .  A
C1340      C1756   1.482       .  S
C1341      H1343   1.082       .  S
Cu1344     N1347   2.072       .  S
Cu1345     N1355   2.080       .  S
Cu1346     N1348   2.052       .  S
Cu1346     N1354   2.053   1_565  S
N1347      N1348   1.319       .  A
N1347      C1351   1.344       .  A
N1348      C1349   1.341       .  A
C1349      C1350   1.385       .  A
C1349      H1352   1.081       .  S
C1350      C1351   1.390       .  A
C1350      C1779   1.483       .  S
C1351      H1353   1.081       .  S
N1354      N1355   1.321   1_545  A
N1354      C1358   1.340       .  A
N1355      C1356   1.348   1_565  A
C1356      C1357   1.386       .  A
C1356      H1359   1.082       .  S
C1357      C1358   1.380       .  A
C1357      C1769   1.474       .  S
C1358      H1360   1.082       .  S
N1361      N1362   1.322       .  A
N1361      C1365   1.349       .  A
N1361     Cu1369   2.090       .  S
N1362      C1363   1.338       .  A
N1362     Cu1368   2.060       .  S
C1363      C1364   1.383       .  A
C1363      H1366   1.081       .  S
C1364      C1365   1.392       .  A
C1364      C1789   1.486       .  S
C1365      H1367   1.081       .  S
Cu1368     N1371   2.059       .  S
Cu1369     N1379   2.090       .  S
Cu1370     N1372   2.056       .  S
Cu1370     N1378   2.057       .  S
N1371      N1372   1.317       .  A
N1371      C1375   1.343       .  A
N1372      C1373   1.342       .  A
C1373      C1374   1.387       .  A
C1373      H1376   1.081       .  S
C1374      C1375   1.388       .  A
C1374      C2156   1.483       .  S
C1375      H1377   1.081       .  S
N1378      N1379   1.321       .  A
N1378      C1382   1.338       .  A
N1379      C1380   1.349       .  A
C1380      C1381   1.393       .  A
C1380      H1383   1.081       .  S
C1381      C1382   1.384       .  A
C1381      C1766   1.488       .  S
C1382      H1384   1.080       .  S
N1385      N1386   1.319       .  A
N1385      C1389   1.348       .  A
N1385     Cu1393   2.073       .  S
N1386      C1387   1.341       .  A
N1386     Cu1392   2.062       .  S
C1387      C1388   1.384       .  A
C1387      H1390   1.081       .  S
C1388      C1389   1.388       .  A
C1388      C1736   1.481       .  S
C1389      H1391   1.082       .  S
Cu1392     N1395   2.062       .  S
Cu1393     N1403   2.075   1_554  S
Cu1394     N1396   2.087       .  S
Cu1394     N1402   2.089   1_554  S
N1395      N1396   1.320       .  A
N1395      C1399   1.341       .  A
N1396      C1397   1.349       .  A
C1397      C1398   1.392       .  A
C1397      H1400   1.082       .  S
C1398      C1399   1.384       .  A
C1398      C1746   1.486       .  S
C1399      H1401   1.081       .  S
N1402      N1403   1.323       .  A
N1402      C1406   1.346       .  A
N1403      C1404   1.343       .  A
C1404      C1405   1.386       .  A
C1404      H1407   1.081       .  S
C1405      C1406   1.391       .  A
C1405      C2129   1.490       .  S
C1406      H1408   1.080       .  S
N1409      C1414   1.351       .  A
N1409      C1413   1.352       .  A
N1409      H1441   1.035       .  S
N1410      C1417   1.351       .  A
N1410      C1418   1.350       .  A
N1411      C1416   1.352       .  A
N1411      C1415   1.352       .  A
N1411      H1442   1.036       .  S
N1412      C1419   1.351       .  A
N1412      C1420   1.350       .  A
C1413      C1421   1.386       .  A
C1413      C1429   1.412       .  A
C1414      C1430   1.411       .  A
C1414      C1422   1.386       .  A
C1415      C1423   1.386       .  A
C1415      C1432   1.413       .  A
C1416      C1431   1.413       .  A
C1416      C1424   1.387       .  A
C1417      C1429   1.412       .  A
C1417      C1425   1.386       .  A
C1418      C1432   1.411       .  A
C1418      C1426   1.387       .  A
C1419      C1427   1.385       .  A
C1419      C1430   1.411       .  A
C1420      C1428   1.388       .  A
C1420      C1431   1.413       .  A
C1421      C1422   1.376       .  A
C1421      H1433   1.082       .  S
C1422      H1434   1.082       .  S
C1423      C1424   1.380       .  A
C1423      H1435   1.082       .  S
C1424      H1436   1.082       .  S
C1425      C1426   1.373       .  A
C1425      H1437   1.082       .  S
C1426      H1438   1.082       .  S
C1427      C1428   1.373       .  A
C1427      H1439   1.082       .  S
C1428      H1440   1.082       .  S
C1429      C1726   1.486       .  S
C1430      C1749   1.482       .  S
C1431      C1716   1.481       .  S
C1432      C1839   1.480       .  S
N1443      N1444   1.320       .  A
N1443      C1447   1.348       .  A
N1443     Cu1451   2.082       .  S
N1444      C1445   1.340       .  A
N1444     Cu1450   2.055       .  S
C1445      C1446   1.383       .  A
C1445      H1448   1.081       .  S
C1446      C1447   1.390       .  A
C1446      C1706   1.483       .  S
C1447      H1449   1.082       .  S
Cu1450     N1453   2.055       .  S
Cu1451     N1461   2.083   1_554  S
Cu1452     N1454   2.075       .  S
Cu1452     N1460   2.077   1_554  S
N1453      N1454   1.319       .  A
N1453      C1457   1.340       .  A
N1454      C1455   1.346       .  A
C1455      C1456   1.389       .  A
C1455      H1458   1.082       .  S
C1456      C1457   1.384       .  A
C1456      C1696   1.482       .  S
C1457      H1459   1.081       .  S
N1460      N1461   1.323       .  A
N1460      C1464   1.345       .  A
N1461      C1462   1.344       .  A
C1462      C1463   1.387       .  A
C1462      H1465   1.082       .  S
C1463      C1464   1.387       .  A
C1463      C2219   1.486       .  S
C1464      H1466   1.081       .  S
N1467      C1472   1.353       .  A
N1467      C1471   1.354       .  A
N1467      H1499   1.041       .  S
N1468      C1475   1.352       .  A
N1468      C1476   1.350       .  A
N1469      C1474   1.354       .  A
N1469      C1473   1.352       .  A
N1469      H1500   1.039       .  S
N1470      C1477   1.350       .  A
N1470      C1478   1.351       .  A
C1471      C1479   1.386       .  A
C1471      C1487   1.414       .  A
C1472      C1488   1.414       .  A
C1472      C1480   1.388       .  A
C1473      C1481   1.388       .  A
C1473      C1490   1.415       .  A
C1474      C1489   1.415       .  A
C1474      C1482   1.386       .  A
C1475      C1487   1.410       .  A
C1475      C1483   1.385       .  A
C1476      C1490   1.413       .  A
C1476      C1484   1.387       .  A
C1477      C1485   1.386       .  A
C1477      C1488   1.410       .  A
C1478      C1486   1.386       .  A
C1478      C1489   1.412       .  A
C1479      C1480   1.374       .  A
C1479      H1491   1.082       .  S
C1480      H1492   1.082       .  S
C1481      C1482   1.377       .  A
C1481      H1493   1.082       .  S
C1482      H1494   1.082       .  S
C1483      C1484   1.371       .  A
C1483      H1495   1.082       .  S
C1484      H1496   1.082       .  S
C1485      C1486   1.371       .  A
C1485      H1497   1.082       .  S
C1486      H1498   1.082       .  S
C1487      C1739   1.488       .  S
C1488      C1699   1.483       .  S
C1489      C1816   1.487       .  S
C1490      C1776   1.482       .  S
N1501      C1506   1.354       .  A
N1501      C1505   1.353       .  A
N1501      H1533   1.040       .  S
N1502      C1509   1.350       .  A
N1502      C1510   1.351       .  A
N1503      C1508   1.351       .  A
N1503      C1507   1.353       .  A
N1503      H1534   1.039       .  S
N1504      C1511   1.351       .  A
N1504      C1512   1.350       .  A
C1505      C1513   1.387       .  A
C1505      C1521   1.415       .  A
C1506      C1522   1.415       .  A
C1506      C1514   1.387       .  A
C1507      C1515   1.386       .  A
C1507      C1524   1.412       .  A
C1508      C1523   1.412       .  A
C1508      C1516   1.387       .  A
C1509      C1521   1.411       .  A
C1509      C1517   1.387       .  A
C1510      C1524   1.410       .  A
C1510      C1518   1.385       .  A
C1511      C1519   1.386       .  A
C1511      C1522   1.410       .  A
C1512      C1520   1.387       .  A
C1512      C1523   1.410       .  A
C1513      C1514   1.377       .  A
C1513      H1525   1.082       .  S
C1514      H1526   1.082       .  S
C1515      C1516   1.374       .  A
C1515      H1527   1.082       .  S
C1516      H1528   1.082       .  S
C1517      C1518   1.370       .  A
C1517      H1529   1.082       .  S
C1518      H1530   1.082       .  S
C1519      C1520   1.370       .  A
C1519      H1531   1.082       .  S
C1520      H1532   1.082       .  S
C1521      C1689   1.482       .  S
C1522      C1709   1.485       .  S
C1523      C1679   1.479       .  S
C1524      C1799   1.484       .  S
N1535      N1536   1.320       .  A
N1535      C1539   1.347       .  A
N1535     Cu1543   2.076       .  S
N1536      C1537   1.340       .  A
N1536     Cu1542   2.064       .  S
C1537      C1538   1.384       .  A
C1537      H1540   1.081       .  S
C1538      C1539   1.389       .  A
C1538      C1686   1.482       .  S
C1539      H1541   1.082       .  S
Cu1542     N1545   2.065       .  S
Cu1543     N1553   2.077   1_554  S
Cu1544     N1546   2.074       .  S
Cu1544     N1552   2.075   1_554  S
N1545      N1546   1.321       .  A
N1545      C1549   1.342       .  A
N1546      C1547   1.347       .  A
C1547      C1548   1.386       .  A
C1547      H1550   1.082       .  S
C1548      C1549   1.382       .  A
C1548      C1729   1.475       .  S
C1549      H1551   1.082       .  S
N1552      N1553   1.323       .  A
N1552      C1556   1.344       .  A
N1553      C1554   1.344       .  A
C1554      C1555   1.387       .  A
C1554      H1557   1.081       .  S
C1555      C1556   1.386       .  A
C1555      C2319   1.484       .  S
C1556      H1558   1.082       .  S
N1559      N1560   1.323       .  A
N1559      C1563   1.346       .  A
N1559     Cu1567   2.084       .  S
N1560      C1561   1.341       .  A
N1560     Cu1566   2.066       .  S
C1561      C1562   1.384       .  A
C1561      H1564   1.081       .  S
C1562      C1563   1.387       .  A
C1562      C1849   1.482       .  S
C1563      H1565   1.082       .  S
Cu1566     N1569   2.064       .  S
Cu1567     N1577   2.083       .  S
Cu1568     N1570   2.056       .  S
Cu1568     N1576   2.057       .  S
N1569      N1570   1.318       .  A
N1569      C1573   1.344       .  A
N1570      C1571   1.341       .  A
C1571      C1572   1.385       .  A
C1571      H1574   1.082       .  S
C1572      C1573   1.388       .  A
C1572      C1676   1.479       .  S
C1573      H1575   1.081       .  S
N1576      N1577   1.320       .  A
N1576      C1580   1.338       .  A
N1577      C1578   1.350       .  A
C1578      C1579   1.392       .  A
C1578      H1581   1.081       .  S
C1579      C1580   1.385       .  A
C1579      C1666   1.488       .  S
C1580      H1582   1.081       .  S
N1583      N1584   1.322       .  A
N1583      C1587   1.344       .  A
N1583     Cu1591   2.069       .  S
N1584      C1585   1.343       .  A
N1584     Cu1590   2.075       .  S
C1585      C1586   1.387       .  A
C1585      H1588   1.082       .  S
C1586      C1587   1.386       .  A
C1586      C1646   1.483       .  S
C1587      H1589   1.081       .  S
Cu1590     N1593   2.074       .  S
Cu1591     N1601   2.068       .  S
Cu1592     N1594   2.063       .  S
Cu1592     N1600   2.063       .  S
N1593      N1594   1.319       .  A
N1593      C1597   1.345       .  A
N1594      C1595   1.342       .  A
C1595      C1596   1.386       .  A
C1595      H1598   1.081       .  S
C1596      C1597   1.390       .  A
C1596      C1719   1.486       .  S
C1597      H1599   1.081       .  S
N1600      N1601   1.321       .  A
N1600      C1604   1.341   1_455  A
N1601      C1602   1.346   1_455  A
C1602      C1603   1.386       .  A
C1602      H1605   1.081       .  S
C1603      C1604   1.384       .  A
C1603      C1659   1.478       .  S
C1604      H1606   1.082       .  S
N1607      N1608   1.323       .  A
N1607      C1611   1.350       .  A
N1607     Cu1615   2.090       .  S
N1608      C1609   1.341       .  A
N1608     Cu1614   2.072       .  S
C1609      C1610   1.383       .  A
C1609      H1612   1.082       .  S
C1610      C1611   1.388       .  A
C1610      C1669   1.482       .  S
C1611      H1613   1.082       .  S
Cu1614     N1617   2.071       .  S
Cu1615     N1625   2.090       .  S
Cu1616     N1618   2.063       .  S
Cu1616     N1624   2.063       .  S
N1617      N1618   1.319       .  A
N1617      C1621   1.344       .  A
N1618      C1619   1.344       .  A
C1619      C1620   1.387       .  A
C1619      H1622   1.081       .  S
C1620      C1621   1.388       .  A
C1620      C2189   1.485       .  S
C1621      H1623   1.082       .  S
N1624      N1625   1.322       .  A
N1624      C1628   1.340       .  A
N1625      C1626   1.349       .  A
C1626      C1627   1.391       .  A
C1626      H1629   1.082       .  S
C1627      C1628   1.383       .  A
C1627      C1656   1.485       .  S
C1628      H1630   1.080       .  S
O1631     Cu1639   2.019       .  S
O1631      C1641   1.279       .  A
O1632     Cu1639   2.018       .  S
O1632      C1642   1.279       .  A
O1633     Cu1639   2.014       .  S
O1633      C1643   1.278       .  A
O1634     Cu1639   2.013       .  S
O1634      C1644   1.279       .  A
O1635     Cu1640   2.002       .  S
O1635      C1644   1.277       .  A
O1636     Cu1640   2.003       .  S
O1636      C1643   1.278       .  A
O1637     Cu1640   1.999       .  S
O1637      C1642   1.277       .  A
O1638     Cu1640   1.997       .  S
O1638      C1641   1.278       .  A
Cu1639    Cu1640   2.368       .  S
C1641      C1759   1.484       .  S
C1642      C1889   1.485       .  S
C1643      C2006   1.484       .  S
C1644      C1649   1.482       .  S
C1645      C1646   1.404       .  A
C1645      C1650   1.396       .  A
C1645      H1652   1.082       .  S
C1646      C1647   1.409       .  A
C1647      C1648   1.399       .  A
C1647      F1654   1.356       .  S
C1648      C1649   1.405       .  A
C1648      H1653   1.083       .  S
C1649      C1650   1.409       .  A
C1650      F1651   1.357       .  S
C1655      C1656   1.406       .  A
C1655      C1660   1.401       .  A
C1655      H1662   1.082       .  S
C1656      C1657   1.410       .  A
C1657      C1658   1.394       .  A
C1657      F1664   1.356       .  S
C1658      C1659   1.402       .  A
C1658      H1663   1.083       .  S
C1659      C1660   1.407       .  A
C1660      F1661   1.357       .  S
C1665      C1666   1.406       .  A
C1665      C1670   1.392       .  A
C1665      H1672   1.082       .  S
C1666      C1667   1.411       .  A
C1667      C1668   1.405       .  A
C1667      F1674   1.356       .  S
C1668      C1669   1.406       .  A
C1668      H1673   1.083       .  S
C1669      C1670   1.405       .  A
C1670      F1671   1.357       .  S
C1675      C1676   1.407       .  A
C1675      C1680   1.395       .  A
C1675      H1682   1.082       .  S
C1676      C1677   1.409       .  A
C1677      C1678   1.395       .  A
C1677      F1684   1.356       .  S
C1678      C1679   1.401       .  A
C1678      H1683   1.084       .  S
C1679      C1680   1.400       .  A
C1680      F1681   1.357       .  S
C1685      C1686   1.408       .  A
C1685      C1690   1.401       .  A
C1685      H1692   1.082       .  S
C1686      C1687   1.409       .  A
C1687      C1688   1.394       .  A
C1687      F1694   1.357       .  S
C1688      C1689   1.401       .  A
C1688      H1693   1.084       .  S
C1689      C1690   1.402       .  A
C1690      F1691   1.357       .  S
C1695      C1696   1.407       .  A
C1695      C1700   1.399       .  A
C1695      H1702   1.082       .  S
C1696      C1697   1.410       .  A
C1697      C1698   1.394       .  A
C1697      F1704   1.356       .  S
C1698      C1699   1.401       .  A
C1698      H1703   1.084       .  S
C1699      C1700   1.403       .  A
C1700      F1701   1.357       .  S
C1705      C1706   1.407       .  A
C1705      C1710   1.400       .  A
C1705      H1712   1.082       .  S
C1706      C1707   1.410       .  A
C1707      C1708   1.395       .  A
C1707      F1714   1.357       .  S
C1708      C1709   1.401       .  A
C1708      H1713   1.084       .  S
C1709      C1710   1.403       .  A
C1710      F1711   1.357       .  S
C1715      C1716   1.401       .  A
C1715      C1720   1.400       .  A
C1715      H1722   1.083       .  S
C1716      C1717   1.401       .  A
C1717      C1718   1.395       .  A
C1717      F1724   1.357       .  S
C1718      C1719   1.408       .  A
C1718      H1723   1.082       .  S
C1719      C1720   1.411       .  A
C1720      F1721   1.356       .  S
C1725      C1726   1.402       .  A
C1725      C1730   1.396       .  A
C1725      H1732   1.083       .  S
C1726      C1727   1.406       .  A
C1727      C1728   1.400       .  A
C1727      F1734   1.357       .  S
C1728      C1729   1.404       .  A
C1728      H1733   1.083       .  S
C1729      C1730   1.406       .  A
C1730      F1731   1.357       .  S
C1735      C1736   1.406       .  A
C1735      C1740   1.402       .  A
C1735      H1742   1.083       .  S
C1736      C1737   1.408       .  A
C1737      C1738   1.395       .  A
C1737      F1744   1.357       .  S
C1738      C1739   1.402       .  A
C1738      H1743   1.083       .  S
C1739      C1740   1.406       .  A
C1740      F1741   1.357       .  S
C1745      C1746   1.408       .  A
C1745      C1750   1.401       .  A
C1745      H1752   1.082       .  S
C1746      C1747   1.411       .  A
C1747      C1748   1.395       .  A
C1747      F1754   1.356       .  S
C1748      C1749   1.399       .  A
C1748      H1753   1.084       .  S
C1749      C1750   1.403       .  A
C1750      F1751   1.357       .  S
C1755      C1756   1.406       .  A
C1755      C1760   1.402       .  A
C1755      H1762   1.083       .  S
C1756      C1757   1.406       .  A
C1757      C1758   1.394       .  A
C1757      F1764   1.357       .  S
C1758      C1759   1.405       .  A
C1758      H1763   1.083       .  S
C1759      C1760   1.410       .  A
C1760      F1761   1.357       .  S
C1765      C1766   1.409       .  A
C1765      C1770   1.401       .  A
C1765      H1772   1.082       .  S
C1766      C1767   1.412       .  A
C1767      C1768   1.393       .  A
C1767      F1774   1.356       .  S
C1768      C1769   1.400       .  A
C1768      H1773   1.084       .  S
C1769      C1770   1.403       .  A
C1770      F1771   1.357       .  S
C1775      C1776   1.400       .  A
C1775      C1780   1.397       .  A
C1775      H1782   1.083       .  S
C1776      C1777   1.404       .  A
C1777      C1778   1.395       .  A
C1777      F1784   1.358       .  S
C1778      C1779   1.406       .  A
C1778      H1783   1.082       .  S
C1779      C1780   1.412       .  A
C1780      F1781   1.356       .  S
C1785      C1786   1.405       .  A
C1785      C1790   1.403       .  A
C1785      H1792   1.083       .  S
C1786      C1787   1.406       .  A
C1787      C1788   1.392       .  A
C1787      F1794   1.357       .  S
C1788      C1789   1.406       .  A
C1788      H1793   1.082       .  S
C1789      C1790   1.409       .  A
C1790      F1791   1.356       .  S
C1795      C1796   1.409       .  A
C1795      C1800   1.398       .  A
C1795      H1802   1.082       .  S
C1796      C1797   1.410       .  A
C1797      C1798   1.398       .  A
C1797      F1804   1.356       .  S
C1798      C1799   1.402       .  A
C1798      H1803   1.083       .  S
C1799      C1800   1.401       .  A
C1800      F1801   1.357       .  S
C1805      C1806   1.401       .  A
C1805      C1810   1.394       .  A
C1805      H1812   1.083       .  S
C1806      C1807   1.407       .  A
C1807      C1808   1.403       .  A
C1807      F1814   1.357       .  S
C1808      C1809   1.407       .  A
C1808      H1813   1.083       .  S
C1809      C1810   1.409       .  A
C1810      F1811   1.357       .  S
C1815      C1816   1.403       .  A
C1815      C1820   1.398       .  A
C1815      H1822   1.083       .  S
C1816      C1817   1.402       .  A
C1817      C1818   1.400       .  A
C1817      F1824   1.357       .  S
C1818      C1819   1.409       .  A
C1818      H1823   1.082       .  S
C1819      C1820   1.410       .  A
C1820      F1821   1.356       .  S
C1825      C1826   1.404       .  A
C1825      C1830   1.392       .  A
C1825      H1832   1.082       .  S
C1826      C1827   1.411       .  A
C1827      C1828   1.400       .  A
C1827      F1834   1.356       .  S
C1828      C1829   1.402       .  A
C1828      H1833   1.083       .  S
C1829      C1830   1.404       .  A
C1830      F1831   1.358       .  S
C1835      C1836   1.408       .  A
C1835      C1840   1.398       .  A
C1835      H1842   1.082       .  S
C1836      C1837   1.413       .  A
C1837      C1838   1.398       .  A
C1837      F1844   1.356       .  S
C1838      C1839   1.399       .  A
C1838      H1843   1.083       .  S
C1839      C1840   1.401       .  A
C1840      F1841   1.357       .  S
C1845      C1846   1.405       .  A
C1845      C1850   1.393       .  A
C1845      H1852   1.083       .  S
C1846      C1847   1.410       .  A
C1847      C1848   1.401       .  A
C1847      F1854   1.357       .  S
C1848      C1849   1.406       .  A
C1848      H1853   1.083       .  S
C1849      C1850   1.407       .  A
C1850      F1851   1.357       .  S
C1855      C1856   1.406       .  A
C1855      C1860   1.398       .  A
C1855      H1862   1.083       .  S
C1856      C1857   1.408       .  A
C1857      C1858   1.399       .  A
C1857      F1864   1.357       .  S
C1858      C1859   1.406       .  A
C1858      H1863   1.082       .  S
C1859      C1860   1.409       .  A
C1860      F1861   1.356       .  S
C1865      C1866   1.406       .  A
C1865      C1870   1.401       .  A
C1865      H1872   1.083       .  S
C1866      C1867   1.405       .  A
C1867      C1868   1.394       .  A
C1867      F1874   1.357       .  S
C1868      C1869   1.405       .  A
C1868      H1873   1.083       .  S
C1869      C1870   1.409       .  A
C1870      F1871   1.357       .  S
C1875      C1876   1.406       .  A
C1875      C1880   1.404       .  A
C1875      H1882   1.083       .  S
C1876      C1877   1.410       .  A
C1877      C1878   1.396       .  A
C1877      F1884   1.358       .  S
C1878      C1879   1.404       .  A
C1878      H1883   1.082       .  S
C1879      C1880   1.411       .  A
C1880      F1881   1.356       .  S
C1885      C1886   1.407       .  A
C1885      C1890   1.394       .  A
C1885      H1892   1.081       .  S
C1886      C1887   1.411       .  A
C1887      C1888   1.402       .  A
C1887      F1894   1.355       .  S
C1888      C1889   1.406       .  A
C1888      H1893   1.083       .  S
C1889      C1890   1.407       .  A
C1890      F1891   1.358       .  S
C1895      C1896   1.406       .  A
C1895      C1900   1.397       .  A
C1895      H1902   1.082       .  S
C1896      C1897   1.408       .  A
C1897      C1898   1.401       .  A
C1897      F1904   1.356       .  S
C1898      C1899   1.407       .  A
C1898      H1903   1.082       .  S
C1899      C1900   1.410       .  A
C1900      F1901   1.356       .  S
C1905      C1906   1.408       .  A
C1905      C1910   1.394       .  A
C1905      H1912   1.080       .  S
C1906      C1907   1.413       .  A
C1907      C1908   1.402       .  A
C1907      F1914   1.355       .  S
C1908      C1909   1.405       .  A
C1908      H1913   1.083       .  S
C1909      C1910   1.405       .  A
C1910      F1911   1.358       .  S
C1915      C1916   1.402       .  A
C1915      C1920   1.401       .  A
C1915      H1922   1.083       .  S
C1916      C1917   1.403       .  A
C1917      C1918   1.392       .  A
C1917      F1924   1.358       .  S
C1918      C1919   1.405       .  A
C1918      H1923   1.082       .  S
C1919      C1920   1.410       .  A
C1920      F1921   1.356       .  S
C1925      C1926   1.400       .  A
C1925      C1930   1.398       .  A
C1925      H1932   1.083       .  S
C1926      C1927   1.404       .  A
C1927      C1928   1.400       .  A
C1927      F1934   1.357       .  S
C1928      C1929   1.407       .  A
C1928      H1933   1.083       .  S
C1929      C1930   1.412       .  A
C1930      F1931   1.356       .  S
C1935      C1936   1.404       .  A
C1935      C1940   1.404       .  A
C1935      H1942   1.083       .  S
C1936      C1937   1.402       .  A
C1937      C1938   1.397       .  A
C1937      F1944   1.357       .  S
C1938      C1939   1.408       .  A
C1938      H1943   1.082       .  S
C1939      C1940   1.411       .  A
C1940      F1941   1.357       .  S
C1945      C1946   1.406       .  A
C1945      C1950   1.395       .  A
C1945      H1952   1.083       .  S
C1946      C1947   1.408       .  A
C1947      C1948   1.401       .  A
C1947      F1954   1.357       .  S
C1948      C1949   1.403       .  A
C1948      H1953   1.083       .  S
C1949      C1950   1.403       .  A
C1950      F1951   1.357       .  S
C1955      C1956   1.403       .  A
C1955      C1960   1.402       .  A
C1955      H1962   1.083       .  S
C1956      C1957   1.402       .  A
C1957      C1958   1.394       .  A
C1957      F1964   1.358       .  S
C1958      C1959   1.406       .  A
C1958      H1963   1.083       .  S
C1959      C1960   1.409       .  A
C1960      F1961   1.357       .  S
C1965      C1966   1.401       .  A
C1965      C1970   1.397       .  A
C1965      H1972   1.083       .  S
C1966      C1967   1.405       .  A
C1967      C1968   1.403       .  A
C1967      F1974   1.357       .  S
C1968      C1969   1.405       .  A
C1968      H1973   1.083       .  S
C1969      C1970   1.408       .  A
C1970      F1971   1.357       .  S
C1975      C1976   1.407       .  A
C1975      C1980   1.400       .  A
C1975      H1982   1.083       .  S
C1976      C1977   1.408       .  A
C1977      C1978   1.396       .  A
C1977      F1984   1.357       .  S
C1978      C1979   1.402       .  A
C1978      H1983   1.084       .  S
C1979      C1980   1.406       .  A
C1980      F1981   1.358       .  S
C1985      C1986   1.404       .  A
C1985      C1990   1.400       .  A
C1985      H1992   1.083       .  S
C1986      C1987   1.406       .  A
C1987      C1988   1.397       .  A
C1987      F1994   1.358       .  S
C1988      C1989   1.405       .  A
C1988      H1993   1.083       .  S
C1989      C1990   1.409       .  A
C1990      F1991   1.356       .  S
C1995      C1996   1.399       .  A
C1995      C2000   1.393       .  A
C1995      H2002   1.084       .  S
C1996      C1997   1.404       .  A
C1997      C1998   1.399       .  A
C1997      F2004   1.357       .  S
C1998      C1999   1.406       .  A
C1998      H2003   1.083       .  S
C1999      C2000   1.408       .  A
C2000      F2001   1.357       .  S
C2005      C2006   1.405       .  A
C2005      C2010   1.396       .  A
C2005      H2012   1.083       .  S
C2006      C2007   1.409       .  A
C2007      C2008   1.401       .  A
C2007      F2014   1.357       .  S
C2008      C2009   1.405       .  A
C2008      H2013   1.083       .  S
C2009      C2010   1.408       .  A
C2010      F2011   1.357       .  S
C2015      C2016   1.409       .  A
C2015      C2020   1.403       .  A
C2015      H2022   1.082       .  S
C2016      C2017   1.412       .  A
C2017      C2018   1.394       .  A
C2017      F2024   1.356       .  S
C2018      C2019   1.399       .  A
C2018      H2023   1.084       .  S
C2019      C2020   1.405       .  A
C2020      F2021   1.357       .  S
C2025      C2026   1.404       .  A
C2025      C2030   1.402       .  A
C2025      H2032   1.083       .  S
C2026      C2027   1.403       .  A
C2027      C2028   1.395       .  A
C2027      F2034   1.357       .  S
C2028      C2029   1.405       .  A
C2028      H2033   1.083       .  S
C2029      C2030   1.408       .  A
C2030      F2031   1.357       .  S
C2035      C2036   1.407       .  A
C2035      C2040   1.404       .  A
C2035      H2042   1.083       .  S
C2036      C2037   1.409       .  A
C2037      C2038   1.395       .  A
C2037      F2044   1.356       .  S
C2038      C2039   1.405       .  A
C2038      H2043   1.083       .  S
C2039      C2040   1.411       .  A
C2040      F2041   1.357       .  S
C2045      C2046   1.402       .  A
C2045      C2050   1.401       .  A
C2045      H2052   1.083       .  S
C2046      C2047   1.403       .  A
C2047      C2048   1.394       .  A
C2047      F2054   1.358       .  S
C2048      C2049   1.405       .  A
C2048      H2053   1.082       .  S
C2049      C2050   1.410       .  A
C2050      F2051   1.357       .  S
C2055      C2056   1.406       .  A
C2055      C2060   1.393       .  A
C2055      H2062   1.082       .  S
C2056      C2057   1.409       .  A
C2057      C2058   1.401       .  A
C2057      F2064   1.357       .  S
C2058      C2059   1.403       .  A
C2058      H2063   1.083       .  S
C2059      C2060   1.400       .  A
C2060      F2061   1.357       .  S
C2065      C2066   1.406       .  A
C2065      C2070   1.401       .  A
C2065      H2072   1.083       .  S
C2066      C2067   1.408       .  A
C2067      C2068   1.398       .  A
C2067      F2074   1.357       .  S
C2068      C2069   1.406       .  A
C2068      H2073   1.083       .  S
C2069      C2070   1.408       .  A
C2070      F2071   1.357       .  S
C2075      C2076   1.409       .  A
C2075      C2080   1.394       .  A
C2075      H2082   1.081       .  S
C2076      C2077   1.412       .  A
C2077      C2078   1.400       .  A
C2077      F2084   1.355       .  S
C2078      C2079   1.402       .  A
C2078      H2083   1.083       .  S
C2079      C2080   1.402       .  A
C2080      F2081   1.358       .  S
C2085      C2086   1.401       .  A
C2085      C2090   1.397       .  A
C2085      H2092   1.083       .  S
C2086      C2087   1.402       .  A
C2087      C2088   1.396       .  A
C2087      F2094   1.357       .  S
C2088      C2089   1.404       .  A
C2088      H2093   1.083       .  S
C2089      C2090   1.411       .  A
C2090      F2091   1.357       .  S
C2095      C2096   1.407       .  A
C2095      C2100   1.401       .  A
C2095      H2102   1.082       .  S
C2096      C2097   1.407       .  A
C2097      C2098   1.394       .  A
C2097      F2104   1.357       .  S
C2098      C2099   1.406       .  A
C2098      H2103   1.083       .  S
C2099      C2100   1.408       .  A
C2100      F2101   1.357       .  S
C2105      C2106   1.402       .  A
C2105      C2110   1.393       .  A
C2105      H2112   1.083       .  S
C2106      C2107   1.404       .  A
C2107      C2108   1.401       .  A
C2107      F2114   1.357       .  S
C2108      C2109   1.409       .  A
C2108      H2113   1.082       .  S
C2109      C2110   1.409       .  A
C2110      F2111   1.356       .  S
C2115      C2116   1.408       .  A
C2115      C2120   1.396       .  A
C2115      H2122   1.082       .  S
C2116      C2117   1.410       .  A
C2117      C2118   1.399       .  A
C2117      F2124   1.356       .  S
C2118      C2119   1.401       .  A
C2118      H2123   1.083       .  S
C2119      C2120   1.401       .  A
C2120      F2121   1.357       .  S
C2125      C2126   1.405       .  A
C2125      C2130   1.397       .  A
C2125      H2132   1.082       .  S
C2126      C2127   1.409       .  A
C2127      C2128   1.398       .  A
C2127      F2134   1.356       .  S
C2128      C2129   1.407       .  A
C2128      H2133   1.082       .  S
C2129      C2130   1.409       .  A
C2130      F2131   1.355       .  S
C2135      C2136   1.402       .  A
C2135      C2140   1.403       .  A
C2135      H2142   1.083       .  S
C2136      C2137   1.405       .  A
C2137      C2138   1.396       .  A
C2137      F2144   1.357       .  S
C2138      C2139   1.409       .  A
C2138      H2143   1.080       .  S
C2139      C2140   1.415       .  A
C2140      F2141   1.354       .  S
C2145      C2146   1.403       .  A
C2145      C2150   1.395       .  A
C2145      H2152   1.083       .  S
C2146      C2147   1.405       .  A
C2147      C2148   1.403       .  A
C2147      F2154   1.357       .  S
C2148      C2149   1.409       .  A
C2148      H2153   1.082       .  S
C2149      C2150   1.409       .  A
C2150      F2151   1.356       .  S
C2155      C2156   1.406       .  A
C2155      C2160   1.397       .  A
C2155      H2162   1.082       .  S
C2156      C2157   1.408       .  A
C2157      C2158   1.397       .  A
C2157      F2164   1.356       .  S
C2158      C2159   1.404       .  A
C2158      H2163   1.083       .  S
C2159      C2160   1.408       .  A
C2160      F2161   1.357       .  S
C2165      C2166   1.403       .  A
C2165      C2170   1.403       .  A
C2165      H2172   1.083       .  S
C2166      C2167   1.403       .  A
C2167      C2168   1.397       .  A
C2167      F2174   1.358       .  S
C2168      C2169   1.406       .  A
C2168      H2173   1.083       .  S
C2169      C2170   1.409       .  A
C2170      F2171   1.357       .  S
C2175      C2176   1.408       .  A
C2175      C2180   1.401       .  A
C2175      H2182   1.083       .  S
C2176      C2177   1.410       .  A
C2177      C2178   1.392       .  A
C2177      F2184   1.356       .  S
C2178      C2179   1.397       .  A
C2178      H2183   1.084       .  S
C2179      C2180   1.403       .  A
C2180      F2181   1.357       .  S
C2185      C2186   1.406       .  A
C2185      C2190   1.399       .  A
C2185      H2192   1.083       .  S
C2186      C2187   1.408       .  A
C2187      C2188   1.399       .  A
C2187      F2194   1.356       .  S
C2188      C2189   1.405       .  A
C2188      H2193   1.083       .  S
C2189      C2190   1.408       .  A
C2190      F2191   1.357       .  S
C2195      C2196   1.400       .  A
C2195      C2200   1.398       .  A
C2195      H2202   1.083       .  S
C2196      C2197   1.399       .  A
C2197      C2198   1.396       .  A
C2197      F2204   1.357       .  S
C2198      C2199   1.409       .  A
C2198      H2203   1.082       .  S
C2199      C2200   1.411       .  A
C2200      F2201   1.356       .  S
C2205      C2206   1.402       .  A
C2205      C2210   1.395       .  A
C2205      H2212   1.084       .  S
C2206      C2207   1.406       .  A
C2207      C2208   1.402       .  A
C2207      F2214   1.357       .  S
C2208      C2209   1.407       .  A
C2208      H2213   1.083       .  S
C2209      C2210   1.410       .  A
C2210      F2211   1.357       .  S
C2215      C2216   1.405       .  A
C2215      C2220   1.402       .  A
C2215      H2222   1.083       .  S
C2216      C2217   1.407       .  A
C2217      C2218   1.397       .  A
C2217      F2224   1.357       .  S
C2218      C2219   1.405       .  A
C2218      H2223   1.082       .  S
C2219      C2220   1.410       .  A
C2220      F2221   1.357       .  S
C2225      C2226   1.406       .  A
C2225      C2230   1.394       .  A
C2225      H2232   1.082       .  S
C2226      C2227   1.408       .  A
C2227      C2228   1.404       .  A
C2227      F2234   1.356       .  S
C2228      C2229   1.409       .  A
C2228      H2233   1.082       .  S
C2229      C2230   1.409       .  A
C2230      F2231   1.356       .  S
C2235      C2236   1.408       .  A
C2235      C2240   1.397       .  A
C2235      H2242   1.082       .  S
C2236      C2237   1.409       .  A
C2237      C2238   1.399       .  A
C2237      F2244   1.356       .  S
C2238      C2239   1.401       .  A
C2238      H2243   1.083       .  S
C2239      C2240   1.401       .  A
C2240      F2241   1.357       .  S
C2245      C2246   1.401       .  A
C2245      C2250   1.393       .  A
C2245      H2252   1.083       .  S
C2246      C2247   1.406       .  A
C2247      C2248   1.403       .  A
C2247      F2254   1.357       .  S
C2248      C2249   1.409       .  A
C2248      H2253   1.082       .  S
C2249      C2250   1.410       .  A
C2250      F2251   1.356       .  S
C2255      C2256   1.405       .  A
C2255      C2260   1.398       .  A
C2255      H2262   1.083       .  S
C2256      C2257   1.409       .  A
C2257      C2258   1.394       .  A
C2257      F2264   1.357       .  S
C2258      C2259   1.401       .  A
C2258      H2263   1.083       .  S
C2259      C2260   1.404       .  A
C2260      F2261   1.357       .  S
C2265      C2266   1.405       .  A
C2265      C2270   1.400       .  A
C2265      H2272   1.083       .  S
C2266      C2267   1.406       .  A
C2267      C2268   1.398       .  A
C2267      F2274   1.357       .  S
C2268      C2269   1.405       .  A
C2268      H2273   1.083       .  S
C2269      C2270   1.409       .  A
C2270      F2271   1.357       .  S
C2275      C2276   1.404       .  A
C2275      C2280   1.399       .  A
C2275      H2282   1.083       .  S
C2276      C2277   1.407       .  A
C2277      C2278   1.400       .  A
C2277      F2284   1.358       .  S
C2278      C2279   1.407       .  A
C2278      H2283   1.083       .  S
C2279      C2280   1.408       .  A
C2280      F2281   1.357       .  S
C2285      C2286   1.407       .  A
C2285      C2290   1.400       .  A
C2285      H2292   1.083       .  S
C2286      C2287   1.409       .  A
C2287      C2288   1.393       .  A
C2287      F2294   1.357       .  S
C2288      C2289   1.401       .  A
C2288      H2293   1.083       .  S
C2289      C2290   1.405       .  A
C2290      F2291   1.357       .  S
C2295      C2296   1.402       .  A
C2295      C2300   1.399       .  A
C2295      H2302   1.083       .  S
C2296      C2297   1.402       .  A
C2297      C2298   1.398       .  A
C2297      F2304   1.358       .  S
C2298      C2299   1.410       .  A
C2298      H2303   1.081       .  S
C2299      C2300   1.411       .  A
C2300      F2301   1.356       .  S
C2305      C2306   1.404       .  A
C2305      C2310   1.401       .  A
C2305      H2312   1.083       .  S
C2306      C2307   1.405       .  A
C2307      C2308   1.395       .  A
C2307      F2314   1.358       .  S
C2308      C2309   1.406       .  A
C2308      H2313   1.083       .  S
C2309      C2310   1.408       .  A
C2310      F2311   1.356       .  S
C2315      C2316   1.404       .  A
C2315      C2320   1.397       .  A
C2315      H2322   1.083       .  S
C2316      C2317   1.407       .  A
C2317      C2318   1.397       .  A
C2317      F2324   1.357       .  S
C2318      C2319   1.406       .  A
C2318      H2323   1.082       .  S
C2319      C2320   1.409       .  A
C2320      F2321   1.356       .  S
C2325      C2326   1.408       .  A
C2325      C2330   1.404       .  A
C2325      H2332   1.082       .  S
C2326      C2327   1.411       .  A
C2327      C2328   1.395       .  A
C2327      F2334   1.356       .  S
C2328      C2329   1.401       .  A
C2328      H2333   1.083       .  S
C2329      C2330   1.407       .  A
C2330      F2331   1.357       .  S
C2335      C2336   1.409       .  A
C2335      C2340   1.400       .  A
C2335      H2342   1.082       .  S
C2336      C2337   1.411       .  A
C2337      C2338   1.398       .  A
C2337      F2344   1.356       .  S
C2338      C2339   1.401       .  A
C2338      H2343   1.083       .  S
C2339      C2340   1.402       .  A
C2340      F2341   1.357       .  S
C2345      C2346   1.404       .  A
C2345      C2350   1.403       .  A
C2345      H2352   1.083       .  S
C2346      C2347   1.405       .  A
C2347      C2348   1.393       .  A
C2347      F2354   1.357       .  S
C2348      C2349   1.408       .  A
C2348      H2353   1.079       .  S
C2349      C2350   1.413       .  A
C2350      F2351   1.355       .  S
C2355      C2356   1.405       .  A
C2355      C2360   1.397       .  A
C2355      H2362   1.083       .  S
C2356      C2357   1.408       .  A
C2357      C2358   1.395       .  A
C2357      F2364   1.357       .  S
C2358      C2359   1.400       .  A
C2358      H2363   1.083       .  S
C2359      C2360   1.403       .  A
C2360      F2361   1.357       .  S
C2365      C2366   1.405       .  A
C2365      C2370   1.402       .  A
C2365      H2372   1.083       .  S
C2366      C2367   1.407       .  A
C2367      C2368   1.398       .  A
C2367      F2374   1.358       .  S
C2368      C2369   1.409       .  A
C2368      H2373   1.081       .  S
C2369      C2370   1.413       .  A
C2370      F2371   1.355       .  S
C2375      C2376   1.405       .  A
C2375      C2380   1.396       .  A
C2375      H2382   1.083       .  S
C2376      C2377   1.410       .  A
C2377      C2378   1.403       .  A
C2377      F2384   1.357       .  S
C2378      C2379   1.405       .  A
C2378      H2383   1.083       .  S
C2379      C2380   1.408       .  A
C2380      F2381   1.357       .  S
C2385      C2386   1.406       .  A
C2385      C2390   1.403       .  A
C2385      H2392   1.083       .  S
C2386      C2387   1.406       .  A
C2387      C2388   1.396       .  A
C2387      F2394   1.357       .  S
C2388      C2389   1.406       .  A
C2388      H2393   1.083       .  S
C2389      C2390   1.411       .  A
C2390      F2391   1.357       .  S
C2395      C2396   1.405       .  A
C2395      C2400   1.398       .  A
C2395      H2402   1.082       .  S
C2396      C2397   1.410       .  A
C2397      C2398   1.404       .  A
C2397      F2404   1.357       .  S
C2398      C2399   1.408       .  A
C2398      H2403   1.083       .  S
C2399      C2400   1.409       .  A
C2400      F2401   1.357       .  S
C2405      C2406   1.406       .  A
C2405      C2410   1.398       .  A
C2405      H2412   1.083       .  S
C2406      C2407   1.409       .  A
C2407      C2408   1.397       .  A
C2407      F2414   1.358       .  S
C2408      C2409   1.406       .  A
C2408      H2413   1.082       .  S
C2409      C2410   1.407       .  A
C2410      F2411   1.356       .  S
C2415      C2416   1.404       .  A
C2415      C2420   1.396       .  A
C2415      H2422   1.083       .  S
C2416      C2417   1.410       .  A
C2417      C2418   1.404       .  A
C2417      F2424   1.357       .  S
C2418      C2419   1.409       .  A
C2418      H2423   1.082       .  S
C2419      C2420   1.412       .  A
C2420      F2421   1.355       .  S
C2425      C2426   1.406       .  A
C2425      C2430   1.401       .  A
C2425      H2432   1.083       .  S
C2426      C2427   1.407       .  A
C2427      C2428   1.397       .  A
C2427      F2434   1.357       .  S
C2428      C2429   1.404       .  A
C2428      H2433   1.083       .  S
C2429      C2430   1.408       .  A
C2430      F2431   1.357       .  S
C2435      C2436   1.407       .  A
C2435      C2440   1.398       .  A
C2435      H2442   1.082       .  S
C2436      C2437   1.410       .  A
C2437      C2438   1.400       .  A
C2437      F2444   1.356       .  S
C2438      C2439   1.405       .  A
C2438      H2443   1.083       .  S
C2439      C2440   1.408       .  A
C2440      F2441   1.358       .  S
C2445      C2446   1.408       .  A
C2445      C2450   1.406       .  A
C2445      H2452   1.083       .  S
C2446      C2447   1.409       .  A
C2447      C2448   1.397       .  A
C2447      F2454   1.356       .  S
C2448      C2449   1.405       .  A
C2448      H2453   1.082       .  S
C2449      C2450   1.411       .  A
C2450      F2451   1.357       .  S
C2455      C2456   1.409       .  A
C2455      C2460   1.406       .  A
C2455      H2462   1.082       .  S
C2456      C2457   1.413       .  A
C2457      C2458   1.398       .  A
C2457      F2464   1.355       .  S
C2458      C2459   1.404       .  A
C2458      H2463   1.083       .  S
C2459      C2460   1.411       .  A
C2460      F2461   1.357       .  S
C2465      C2466   1.403       .  A
C2465      C2470   1.396       .  A
C2465      H2472   1.083       .  S
C2466      C2467   1.407       .  A
C2467      C2468   1.401       .  A
C2467      F2474   1.356       .  S
C2468      C2469   1.406       .  A
C2468      H2473   1.082       .  S
C2469      C2470   1.412       .  A
C2470      F2471   1.356       .  S
C2475      C2476   1.406       .  A
C2475      C2480   1.404       .  A
C2475      H2482   1.083       .  S
C2476      C2477   1.409       .  A
C2477      C2478   1.397       .  A
C2477      F2484   1.357       .  S
C2478      C2479   1.403       .  A
C2478      H2483   1.083       .  S
C2479      C2480   1.407       .  A
C2480      F2481   1.357       .  S
C2485      C2486   1.403       .  A
C2485      C2490   1.398       .  A
C2485      H2492   1.083       .  S
C2486      C2487   1.406       .  A
C2487      C2488   1.400       .  A
C2487      F2494   1.357       .  S
C2488      C2489   1.406       .  A
C2488      H2493   1.083       .  S
C2489      C2490   1.410       .  A
C2490      F2491   1.357       .  S
C2495      C2496   1.409       .  A
C2495      C2500   1.397       .  A
C2495      H2502   1.082       .  S
C2496      C2497   1.413       .  A
C2497      C2498   1.401       .  A
C2497      F2504   1.356       .  S
C2498      C2499   1.401       .  A
C2498      H2503   1.083       .  S
C2499      C2500   1.402       .  A
C2500      F2501   1.358       .  S
C2505      C2506   1.405       .  A
C2505      C2510   1.399       .  A
C2505      H2512   1.083       .  S
C2506      C2507   1.408       .  A
C2507      C2508   1.398       .  A
C2507      F2514   1.357       .  S
C2508      C2509   1.404       .  A
C2508      H2513   1.083       .  S
C2509      C2510   1.408       .  A
C2510      F2511   1.357       .  S
C2515      C2516   1.401       .  A
C2515      C2520   1.399       .  A
C2515      H2522   1.083       .  S
C2516      C2517   1.404       .  A
C2517      C2518   1.397       .  A
C2517      F2524   1.358       .  S
C2518      C2519   1.406       .  A
C2518      H2523   1.083       .  S
C2519      C2520   1.409       .  A
C2520      F2521   1.357       .  S
C2525      C2526   1.400       .  A
C2525      C2530   1.400       .  A
C2525      H2532   1.083       .  S
C2526      C2527   1.403       .  A
C2527      C2528   1.394       .  A
C2527      F2534   1.358       .  S
C2528      C2529   1.406       .  A
C2528      H2533   1.082       .  S
C2529      C2530   1.412       .  A
C2530      F2531   1.356       .  S
C2535      C2536   1.405       .  A
C2535      C2540   1.398       .  A
C2535      H2542   1.083       .  S
C2536      C2537   1.410       .  A
C2537      C2538   1.396       .  A
C2537      F2544   1.357       .  S
C2538      C2539   1.401       .  A
C2538      H2543   1.084       .  S
C2539      C2540   1.403       .  A
C2540      F2541   1.357       .  S
C2545      C2546   1.404       .  A
C2545      C2550   1.399       .  A
C2545      H2552   1.083       .  S
C2546      C2547   1.408       .  A
C2547      C2548   1.400       .  A
C2547      F2554   1.357       .  S
C2548      C2549   1.406       .  A
C2548      H2553   1.083       .  S
C2549      C2550   1.409       .  A
C2550      F2551   1.356       .  S
C2555      C2556   1.402       .  A
C2555      C2560   1.402       .  A
C2555      H2562   1.083       .  S
C2556      C2557   1.405       .  A
C2557      C2558   1.399       .  A
C2557      F2564   1.357       .  S
C2558      C2559   1.407       .  A
C2558      H2563   1.082       .  S
C2559      C2560   1.412       .  A
C2560      F2561   1.357       .  S
C2565      C2566   1.401       .  A
C2565      C2570   1.398       .  A
C2565      H2572   1.083       .  S
C2566      C2567   1.402       .  A
C2567      C2568   1.393       .  A
C2567      F2574   1.358       .  S
C2568      C2569   1.404       .  A
C2568      H2573   1.083       .  S
C2569      C2570   1.408       .  A
C2570      F2571   1.357       .  S
C2575      C2576   1.403       .  A
C2575      C2580   1.401       .  A
C2575      H2582   1.083       .  S
C2576      C2577   1.404       .  A
C2577      C2578   1.395       .  A
C2577      F2584   1.358       .  S
C2578      C2579   1.405       .  A
C2578      H2583   1.083       .  S
C2579      C2580   1.408       .  A
C2580      F2581   1.357       .  S
C2585      C2586   1.406       .  A
C2585      C2590   1.399       .  A
C2585      H2592   1.082       .  S
C2586      C2587   1.409       .  A
C2587      C2588   1.399       .  A
C2587      F2594   1.356       .  S
C2588      C2589   1.405       .  A
C2588      H2593   1.083       .  S
C2589      C2590   1.408       .  A
C2590      F2591   1.357       .  S
C2595      C2596   1.407       .  A
C2595      C2600   1.400       .  A
C2595      H2602   1.083       .  S
C2596      C2597   1.409       .  A
C2597      C2598   1.401       .  A
C2597      F2604   1.357       .  S
C2598      C2599   1.406       .  A
C2598      H2603   1.082       .  S
C2599      C2600   1.410       .  A
C2600      F2601   1.357       .  S
C2605      C2606   1.404       .  A
C2605      C2610   1.392       .  A
C2605      H2612   1.082       .  S
C2606      C2607   1.412       .  A
C2607      C2608   1.403       .  A
C2607      F2614   1.356       .  S
C2608      C2609   1.404       .  A
C2608      H2613   1.083       .  S
C2609      C2610   1.406       .  A
C2610      F2611   1.357       .  S
C2615      C2616   1.401       .  A
C2615      C2620   1.397       .  A
C2615      H2622   1.083       .  S
C2616      C2617   1.400       .  A
C2617      C2618   1.397       .  A
C2617      F2624   1.358       .  S
C2618      C2619   1.410       .  A
C2618      H2623   1.082       .  S
C2619      C2620   1.410       .  A
C2620      F2621   1.356       .  S
C2625      C2626   1.406       .  A
C2625      C2630   1.395       .  A
C2625      H2632   1.082       .  S
C2626      C2627   1.411       .  A
C2627      C2628   1.400       .  A
C2627      F2634   1.356       .  S
C2628      C2629   1.404       .  A
C2628      H2633   1.083       .  S
C2629      C2630   1.406       .  A
C2630      F2631   1.358       .  S
C2635      C2636   1.401       .  A
C2635      C2640   1.399       .  A
C2635      H2642   1.083       .  S
C2636      C2637   1.403       .  A
C2637      C2638   1.394       .  A
C2637      F2644   1.358       .  S
C2638      C2639   1.409       .  A
C2638      H2643   1.080       .  S
C2639      C2640   1.414       .  A
C2640      F2641   1.355       .  S
C2645      C2646   1.407       .  A
C2645      C2650   1.399       .  A
C2645      H2652   1.082       .  S
C2646      C2647   1.412       .  A
C2647      C2648   1.401       .  A
C2647      F2654   1.356       .  S
C2648      C2649   1.401       .  A
C2648      H2653   1.083       .  S
C2649      C2650   1.404       .  A
C2650      F2651   1.357       .  S
C2655      C2656   1.406       .  A
C2655      C2660   1.403       .  A
C2655      H2662   1.083       .  S
C2656      C2657   1.408       .  A
C2657      C2658   1.401       .  A
C2657      F2664   1.356       .  S
C2658      C2659   1.407       .  A
C2658      H2663   1.082       .  S
C2659      C2660   1.411       .  A
C2660      F2661   1.356       .  S
C2665      C2666   1.407       .  A
C2665      C2670   1.399       .  A
C2665      H2672   1.082       .  S
C2666      C2667   1.411       .  A
C2667      C2668   1.400       .  A
C2667      F2674   1.355       .  S
C2668      C2669   1.405       .  A
C2668      H2673   1.083       .  S
C2669      C2670   1.410       .  A
C2670      F2671   1.358       .  S
C2675      C2676   1.404       .  A
C2675      C2680   1.404       .  A
C2675      H2682   1.083       .  S
C2676      C2677   1.404       .  A
C2677      C2678   1.395       .  A
C2677      F2684   1.357       .  S
C2678      C2679   1.406       .  A
C2678      H2683   1.082       .  S
C2679      C2680   1.412       .  A
C2680      F2681   1.356       .  S
C2685      C2686   1.406       .  A
C2685      C2690   1.399       .  A
C2685      H2692   1.083       .  S
C2686      C2687   1.409       .  A
C2687      C2688   1.399       .  A
C2687      F2694   1.357       .  S
C2688      C2689   1.403       .  A
C2688      H2693   1.083       .  S
C2689      C2690   1.404       .  A
C2690      F2691   1.357       .  S
C2695      C2696   1.409       .  A
C2695      C2700   1.405       .  A
C2695      H2702   1.083       .  S
C2696      C2697   1.410       .  A
C2697      C2698   1.397       .  A
C2697      F2704   1.357       .  S
C2698      C2699   1.404       .  A
C2698      H2703   1.083       .  S
C2699      C2700   1.409       .  A
C2700      F2701   1.357       .  S
C2705      C2706   1.401       .  A
C2705      C2710   1.395       .  A
C2705      H2712   1.083       .  S
C2706      C2707   1.404       .  A
C2707      C2708   1.402       .  A
C2707      F2714   1.357       .  S
C2708      C2709   1.409       .  A
C2708      H2713   1.082       .  S
C2709      C2710   1.412       .  A
C2710      F2711   1.355       .  S
C2715      C2716   1.407       .  A
C2715      C2720   1.396       .  A
C2715      H2722   1.083       .  S
C2716      C2717   1.409       .  A
C2717      C2718   1.397       .  A
C2717      F2724   1.356       .  S
C2718      C2719   1.402       .  A
C2718      H2723   1.083       .  S
C2719      C2720   1.402       .  A
C2720      F2721   1.357       .  S
