geometry optimzed in LAMMPS
_audit_creation_date              2020-11-30 
_audit_creation_method            'lammps2cif' 
_symmetry_space_group_name_H-M    'P1' 
_symmetry_Int_Tables_number       1 
_symmetry_cell_setting            triclinic 
loop_ 
_symmetry_equiv_pos_as_xyz 
  x,y,z 
_cell_length_a                    38.48554913 
_cell_length_b                    38.71554935501455 
_cell_length_c                    38.80769421923847 
_cell_angle_alpha                 89.65376274061832 
_cell_angle_beta                  89.7955134544455 
_cell_angle_gamma                 89.85641821966206 
loop_ 
_atom_site_label 
_atom_site_type_symbol 
_atom_site_fract_x 
_atom_site_fract_y 
_atom_site_fract_z 
_atom_site_charge 
C1          C  0.03893078  0.98833614  0.99803569     0.02000
C2          C  0.02675332  0.01452569  0.97367261     0.02000
C3          C  0.99885434  0.03708773  0.98360768     0.02000
C4          C  0.97758846  0.02885511  0.01271655     0.02000
C5          C  0.98754084  0.00136446  0.03534393     0.02000
C6          C  0.01547755  0.97830953  0.02622422     0.02000
O7          O  0.02545678  0.17793323  0.86021324    -0.80500
O8          O  0.96852043  0.31910299  0.84230674    -0.80500
O9          O  0.94099316  0.24769803  0.81707850    -0.80500
O10         O  0.05460438  0.24313656  0.83113375    -0.80400
O11         O  0.91713848  0.27721807  0.85734503    -0.80600
O12         O  0.07590926  0.22283616  0.87762329    -0.80500
O13         O  0.00665664  0.28932560  0.81182495    -0.80500
O14         O  0.99450521  0.20176256  0.81832216    -0.80500
C15         C  0.01499235  0.17875083  0.82890316     1.09200
C16         C  0.98371941  0.31222258  0.81369302     1.09100
C17         C  0.91526318  0.26452637  0.82764057     1.09300
C18         C  0.08064770  0.23120948  0.84649064     1.09100
O19         O  0.03367612  0.24724508  0.93442950    -0.80500
O20         O  0.94461402  0.26060788  0.92336165    -0.80500
O21         O  0.96667397  0.17055214  0.88027256    -0.80500
O22         O  0.02111260  0.33156502  0.87255113    -0.80500
O23         O  0.99224487  0.31240052  0.91569692    -0.80500
O24         O  0.98726312  0.19640760  0.92421516    -0.80500
O25         O  0.06185072  0.28032184  0.89684309    -0.80400
O26         O  0.92161613  0.22276973  0.88715893    -0.80500
Co27       Co  0.02729917  0.21421010  0.89793353     1.51500
Co28       Co  0.95921622  0.28912484  0.88480743     1.51700
Co29       Co  0.95915477  0.21433667  0.85148957     1.51600
Co30       Co  0.03315495  0.28296103  0.85355849     1.51500
O31         O  0.99457905  0.25012537  0.87220745    -1.42400
C32         C  0.05572792  0.27011605  0.92774272     1.09200
C33         C  0.92209621  0.23815948  0.91622247     1.09200
C34         C  0.97526619  0.16919392  0.91162432     1.09200
C35         C  0.00776319  0.33746932  0.90189053     1.09200
O36         O  0.85801860  0.03056944  0.18239148    -0.80500
O37         O  0.85692604  0.96292813  0.31790358    -0.80500
O38         O  0.82366022  0.93890662  0.24750571    -0.80500
O39         O  0.82082084  0.05071606  0.25065467    -0.80400
O40         O  0.86934343  0.91687224  0.27199460    -0.80600
O41         O  0.86495610  0.07768069  0.22844171    -0.80500
O42         O  0.81518728  0.99483412  0.29568103    -0.80500
O43         O  0.81609705  0.99692253  0.20123369    -0.80500
C44         C  0.82730845  0.01959374  0.18027621     1.09200
C45         C  0.82528132  0.97271496  0.31740734     1.09100
C46         C  0.83842956  0.91313246  0.26191764     1.09300
C47         C  0.83315604  0.07788993  0.23730315     1.09100
O48         O  0.93026807  0.04581635  0.25074629    -0.80500
O49         O  0.93208367  0.95119249  0.24949608    -0.80500
O50         O  0.88080061  0.97545597  0.16928418    -0.80500
O51         O  0.87849342  0.01850045  0.33007750    -0.80500
O52         O  0.92394913  0.99625558  0.30581262    -0.80500
O53         O  0.92463436  0.00024836  0.19394217    -0.80500
O54         O  0.88773674  0.06574392  0.28331159    -0.80400
O55         O  0.89107649  0.92965309  0.21645845    -0.80500
Co56       Co  0.89429086  0.03486707  0.21707240     1.51500
Co57       Co  0.89522722  0.96060037  0.28322700     1.51700
Co58       Co  0.85304309  0.96350182  0.21253813     1.51600
Co59       Co  0.85097634  0.02952202  0.28637577     1.51500
O60         O  0.87340022  0.99702263  0.24973712    -1.42400
C61         C  0.91905928  0.06725671  0.27252436     1.09200
C62         C  0.92218736  0.92961702  0.22725906     1.09200
C63         C  0.91151055  0.98696418  0.16702935     1.09200
C64         C  0.90997504  0.00901576  0.33246609     1.09200
C65         C  0.97821874  0.97253119  0.48361455     0.02000
C66         C  0.98746140  0.00146063  0.46267664     0.02000
C67         C  0.01355551  0.02481628  0.47400289     0.02000
C68         C  0.03541898  0.01565707  0.50253180     0.02000
C69         C  0.02814363  0.98487618  0.52243328     0.02000
C70         C  0.00025688  0.96252221  0.51158159     0.02000
O71         O  0.02688177  0.81520682  0.62216836    -0.80500
O72         O  0.97230011  0.67488403  0.64653194    -0.80500
O73         O  0.94098399  0.74745969  0.66601729    -0.80500
O74         O  0.05476200  0.75355800  0.65724436    -0.80400
O75         O  0.91861037  0.71553627  0.62705947    -0.80600
O76         O  0.07858662  0.77076845  0.61105551    -0.80500
O77         O  0.00856934  0.70710544  0.67610097    -0.80500
O78         O  0.99381288  0.79819513  0.66546260    -0.80500
C79         C  0.01635256  0.81879534  0.65279213     1.09200
C80         C  0.98721351  0.68292517  0.67494052     1.09100
C81         C  0.91498226  0.73100933  0.65535531     1.09300
C82         C  0.08174015  0.76435121  0.64290173     1.09100
O83         O  0.03762690  0.74372963  0.55310358    -0.80500
O84         O  0.94975041  0.72768725  0.56121134    -0.80500
O85         O  0.96767924  0.82209090  0.60191747    -0.80500
O86         O  0.02651357  0.66333509  0.61711106    -0.80500
O87         O  0.99844161  0.68000365  0.57279771    -0.80500
O88         O  0.99239988  0.79777831  0.55872637    -0.80500
O89         O  0.06696189  0.71358227  0.59199708    -0.80400
O90         O  0.92509022  0.76813655  0.59367218    -0.80500
Co91       Co  0.03042578  0.77830711  0.58751275     1.51500
Co92       Co  0.96317963  0.70274560  0.60214834     1.51700
Co93       Co  0.96021458  0.77995665  0.63142049     1.51600
Co94       Co  0.03618444  0.71247923  0.63487382     1.51500
O95         O  0.99710516  0.74359306  0.61381934    -1.42400
C96         C  0.06125434  0.72290799  0.56080272     1.09200
C97         C  0.92808742  0.75161111  0.56514428     1.09200
C98         C  0.97793310  0.82426430  0.57123667     1.09200
C99         C  0.01529464  0.65640285  0.58728550     1.09200
O100        O  0.18591942  0.86845268  0.02858256    -0.80500
O101        O  0.32289598  0.84191771  0.96144905    -0.80500
O102        O  0.24487682  0.82224056  0.93819398    -0.80500
O103        O  0.25073773  0.82164003  0.04937859    -0.80400
O104        O  0.27767088  0.86074600  0.91390038    -0.80600
O105        O  0.23530713  0.86852019  0.07495393    -0.80500
O106        O  0.29057908  0.80911814  0.99481704    -0.80500
O107        O  0.19783751  0.82477084  0.99468933    -0.80500
C108        C  0.17893812  0.83884412  0.01750089     1.09200
C109        C  0.31477773  0.81225583  0.97380813     1.09100
C110        C  0.26152756  0.83248262  0.91178444     1.09300
C111        C  0.24054889  0.83598956  0.07652273     1.09100
O112        O  0.26557593  0.92871589  0.03787786    -0.80500
O113        O  0.26740753  0.92761809  0.94508601    -0.80500
O114        O  0.17672093  0.89229790  0.97237366    -0.80500
O115        O  0.33827154  0.86737238  0.01481556    -0.80500
O116        O  0.31906707  0.91354877  0.99056428    -0.80500
O117        O  0.20638578  0.93239816  0.99767376    -0.80500
O118        O  0.29253032  0.88406345  0.06117015    -0.80400
O119        O  0.22672797  0.89335383  0.92439247    -0.80500
Co120      Co  0.22654391  0.89846464  0.03104516     1.51500
Co121      Co  0.29383594  0.88591660  0.95632753     1.51700
Co122      Co  0.21542489  0.85805107  0.96037404     1.51600
Co123      Co  0.28966281  0.84648754  0.02690527     1.51500
O124        O  0.25590571  0.87248883  0.99339729    -1.42400
C125        C  0.28633959  0.91635837  0.05943773     1.09200
C126        C  0.24150208  0.92277282  0.92606337     1.09200
C127        C  0.17806251  0.92276151  0.98428794     1.09200
C128        C  0.34377083  0.89860653  0.00564413     1.09200
O129        O  0.00921853  0.79407240  0.18882707    -0.80500
O130        O  0.98535831  0.70569408  0.17991944    -0.80500
O131        O  0.91862859  0.77991564  0.12671045    -0.80500
O132        O  0.08245875  0.72449084  0.12791157    -0.80400
O133        O  0.93752607  0.74751400  0.16739236    -0.80600
O134        O  0.06235363  0.74837195  0.17401076    -0.80500
O135        O  0.03057573  0.68959384  0.15122931    -0.80500
O136        O  0.97106276  0.81921455  0.15300902    -0.80500
C137        C  0.98331198  0.81321358  0.18342899     1.09200
C138        C  0.01193452  0.68850912  0.17792168     1.09100
C139        C  0.91295567  0.76483348  0.15510235     1.09300
C140        C  0.08782662  0.73395485  0.15893695     1.09100
O141        O  0.07016014  0.78363197  0.10879821    -0.80500
O142        O  0.93705552  0.72623690  0.09597265    -0.80500
O143        O  0.00455815  0.81736353  0.08424242    -0.80500
O144        O  0.04231281  0.68102444  0.08476078    -0.80500
O145        O  0.98825388  0.67681233  0.10624335    -0.80500
O146        O  0.02741135  0.83630533  0.13050528    -0.80500
O147        O  0.04215161  0.75195719  0.07029568    -0.80400
O148        O  0.95949087  0.76832391  0.06491803    -0.80500
Co149      Co  0.03941186  0.78779629  0.14988139     1.51500
Co150      Co  0.96524222  0.71745747  0.13716327     1.51700
Co151      Co  0.96682685  0.79340075  0.10820869     1.51600
Co152      Co  0.03211307  0.72119477  0.10947849     1.51500
O153        O  0.00098656  0.75710530  0.12876129    -1.42400
C154        C  0.06364012  0.77565967  0.07753128     1.09200
C155        C  0.94033082  0.74219409  0.06757500     1.09200
C156        C  0.01679686  0.84252100  0.10015572     1.09200
C157        C  0.01435772  0.66387115  0.08832743     1.09200
C158        C  0.27307534  0.78331358  0.24321568     0.02000
C159        C  0.24912517  0.77069091  0.21702112     0.02000
C160        C  0.22630870  0.74207418  0.22739190     0.02000
C161        C  0.23492114  0.72124997  0.25719175     0.02000
C162        C  0.26366377  0.73017368  0.27872472     0.02000
C163        C  0.28499829  0.75898460  0.26977720     0.02000
O164        O  0.20024321  0.66988993  0.49270643    -0.80500
O165        O  0.29486410  0.68038065  0.50010676    -0.80500
O166        O  0.22331644  0.62677904  0.57465960    -0.80500
O167        O  0.28145656  0.63660038  0.41824395    -0.80400
O168        O  0.24663389  0.67179454  0.55163728    -0.80600
O169        O  0.24731709  0.67430077  0.44142943    -0.80500
O170        O  0.32502142  0.64360302  0.46931758    -0.80500
O171        O  0.17702437  0.62827371  0.52290507    -0.80500
C172        C  0.17538250  0.65839051  0.50986828     1.09200
C173        C  0.32121034  0.67339386  0.48242955     1.09100
C174        C  0.23218739  0.65832721  0.57759772     1.09300
C175        C  0.26714042  0.66619137  0.41687929     1.09100
O176        O  0.22657771  0.60528466  0.41947382    -0.80500
O177        O  0.28200421  0.60683327  0.57001648    -0.80500
O178        O  0.20778578  0.56298076  0.49552133    -0.80500
O179        O  0.31116065  0.57454902  0.49493784    -0.80500
O180        O  0.33099039  0.61743665  0.52484690    -0.80500
O181        O  0.17717111  0.60060589  0.46852065    -0.80500
O182        O  0.26207967  0.56746945  0.44246388    -0.80400
O183        O  0.25622748  0.56557580  0.54203968    -0.80500
Co184      Co  0.21597302  0.63718502  0.45876888     1.51500
Co185      Co  0.28540116  0.64357524  0.53309003     1.51700
Co186      Co  0.21913406  0.59703326  0.53059169     1.51600
Co187      Co  0.29146424  0.60553014  0.45963712     1.51500
O188        O  0.25309029  0.62096022  0.49531758    -1.42400
C189        C  0.24179088  0.57626990  0.41839845     1.09200
C190        C  0.27432678  0.57515520  0.56663901     1.09200
C191        C  0.17952767  0.57059157  0.48206684     1.09200
C192        C  0.33516143  0.58711918  0.51317270     1.09200
C193        C  0.21631521  0.77147826  0.75661098     0.02000
C194        C  0.20903895  0.75026768  0.72691968     0.02000
C195        C  0.23213200  0.72234842  0.71758010     0.02000
C196        C  0.26157329  0.71478064  0.73920471     0.02000
C197        C  0.26891735  0.73536876  0.76905364     0.02000
C198        C  0.24418380  0.76128587  0.77933874     0.02000
O199        O  0.42634998  0.78170314  0.88856612    -0.80500
O200        O  0.56563776  0.71687501  0.88332903    -0.80500
O201        O  0.49631253  0.69205290  0.91403263    -0.80500
O202        O  0.49893550  0.80664643  0.92049835    -0.80400
O203        O  0.51927955  0.66838925  0.87001108    -0.80600
O204        O  0.47290511  0.83174371  0.87807088    -0.80500
O205        O  0.54432370  0.74982089  0.92442584    -0.80500
O206        O  0.45362972  0.74578106  0.92336384    -0.80500
C207        C  0.42945584  0.76653043  0.91767829     1.09200
C208        C  0.56579686  0.72721670  0.91435260     1.09100
C209        C  0.50928934  0.66535911  0.90116786     1.09300
C210        C  0.48413393  0.83344267  0.90867694     1.09100
O211        O  0.49297085  0.79995906  0.81350736    -0.80500
O212        O  0.49815162  0.70863507  0.80841952    -0.80500
O213        O  0.41549053  0.72779395  0.86017590    -0.80500
O214        O  0.57803016  0.77376014  0.86196646    -0.80500
O215        O  0.55409225  0.75131549  0.81734086    -0.80500
O216        O  0.43718670  0.75654366  0.81774750    -0.80500
O217        O  0.52911234  0.82141397  0.85212364    -0.80400
O218        O  0.46396359  0.68158886  0.84529982    -0.80500
Co219      Co  0.46071764  0.78874146  0.84999390     1.51500
Co220      Co  0.53103092  0.71490830  0.84541298     1.51700
Co221      Co  0.46067045  0.71480690  0.88531716     1.51600
Co222      Co  0.53368709  0.78468857  0.88898070     1.51500
O223        O  0.49660089  0.75098275  0.86713791    -1.42400
C224        C  0.51616662  0.82101685  0.82185096     1.09200
C225        C  0.47649755  0.68537344  0.81499660     1.09200
C226        C  0.41139840  0.74095667  0.83037599     1.09200
C227        C  0.58093461  0.76369030  0.83104860     1.09200
C228        C  0.73457134  0.28116127  0.72603881     0.02000
C229        C  0.76217388  0.29073866  0.74866722     0.02000
C230        C  0.77355080  0.26693328  0.77487026     0.02000
C231        C  0.75402394  0.23617514  0.78245929     0.02000
C232        C  0.72618384  0.22657489  0.75996826     0.02000
C233        C  0.71653083  0.24922752  0.73214830     0.02000
O234        O  0.89706067  0.42876480  0.77747862    -0.80500
O235        O  0.90523412  0.57047973  0.71451021    -0.80500
O236        O  0.93249892  0.49826686  0.68993336    -0.80500
O237        O  0.93603560  0.49837897  0.80129392    -0.80400
O238        O  0.88984331  0.52552126  0.66635965    -0.80600
O239        O  0.89111382  0.47564501  0.82593504    -0.80500
O240        O  0.94343186  0.54278303  0.74639574    -0.80500
O241        O  0.93674022  0.45190591  0.74342815    -0.80500
C242        C  0.92748002  0.42870449  0.76423267     1.09200
C243        C  0.93573514  0.56754323  0.72696585     1.09100
C244        C  0.92056502  0.51402885  0.66399609     1.09300
C245        C  0.92250038  0.48518461  0.82789050     1.09100
O246        O  0.82812238  0.50267656  0.79641132    -0.80500
O247        O  0.82592644  0.50719466  0.70398339    -0.80500
O248        O  0.87021574  0.42219177  0.72263573    -0.80500
O249        O  0.88198316  0.58212113  0.77033449    -0.80500
O250        O  0.83696199  0.55962493  0.74710671    -0.80500
O251        O  0.82878446  0.44830945  0.74962663    -0.80500
O252        O  0.87158863  0.53323209  0.81729629    -0.80400
O253        O  0.86160165  0.47173364  0.67727482    -0.80500
Co254      Co  0.86183614  0.46695798  0.78374718     1.51500
Co255      Co  0.86483039  0.53754307  0.71125873     1.51700
Co256      Co  0.90025599  0.46438226  0.71129631     1.51600
Co257      Co  0.90751596  0.53576407  0.78075999     1.51500
O258        O  0.88343703  0.50112069  0.74699128    -1.42400
C259        C  0.83966281  0.52488225  0.81712912     1.09200
C260        C  0.83161046  0.48531394  0.68112513     1.09200
C261        C  0.83929572  0.42170234  0.73403486     1.09200
C262        C  0.85152099  0.58612259  0.75826346     1.09200
O263        O  0.00268199  0.20620361  0.31425287    -0.80500
O264        O  0.99247857  0.30039913  0.32160201    -0.80500
O265        O  0.91649877  0.22173608  0.36821187    -0.80500
O266        O  0.07771708  0.27184403  0.37304652    -0.80400
O267        O  0.93527615  0.25231046  0.32533497    -0.80600
O268        O  0.05595648  0.25093243  0.32681813    -0.80500
O269        O  0.02675762  0.31691071  0.36365169    -0.80500
O270        O  0.96764470  0.17982655  0.35116117    -0.80500
C271        C  0.97805485  0.18575901  0.32026427     1.09200
C272        C  0.01505996  0.32099177  0.33351428     1.09100
C273        C  0.91049636  0.23557183  0.33937890     1.09300
C274        C  0.08204325  0.26349072  0.34162310     1.09100
O275        O  0.06671844  0.21478629  0.39403200    -0.80500
O276        O  0.92513975  0.27664972  0.39538131    -0.80500
O277        O  0.99704177  0.18653789  0.42054415    -0.80500
O278        O  0.99380698  0.29867602  0.42914624    -0.80500
O279        O  0.96991158  0.32642519  0.38714827    -0.80500
O280        O  0.02245291  0.16621360  0.37540512    -0.80500
O281        O  0.03772629  0.24458225  0.43287610    -0.80400
O282        O  0.94891417  0.23954637  0.43200161    -0.80500
Co283      Co  0.03358885  0.21303947  0.35327462     1.51500
Co284      Co  0.95950187  0.28483719  0.35736369     1.51700
Co285      Co  0.96126135  0.21011704  0.39258308     1.51600
Co286      Co  0.03073755  0.28000157  0.39871364     1.51500
O287        O  0.99605406  0.24717520  0.37445237    -1.42400
C288        C  0.06170545  0.22424159  0.42522294     1.09200
C289        C  0.92600509  0.26201685  0.42494516     1.09200
C290        C  0.01238340  0.16160798  0.40620353     1.09200
C291        C  0.97934127  0.32581759  0.41829998     1.09200
C292        C  0.26456712  0.21259351  0.24884672     0.02000
C293        C  0.24276601  0.22564588  0.27659124     0.02000
C294        C  0.21821545  0.25257748  0.26830789     0.02000
C295        C  0.22467220  0.27459647  0.23902195     0.02000
C296        C  0.25346379  0.26704985  0.21651808     0.02000
C297        C  0.27574080  0.23808197  0.22378554     0.02000
O298        O  0.19599735  0.31779052  0.99732418    -0.80500
O299        O  0.29335141  0.31280657  0.99010428    -0.80500
O300        O  0.22067078  0.36763075  0.91951939    -0.80500
O301        O  0.27513780  0.35715709  0.07432306    -0.80400
O302        O  0.24514955  0.32276924  0.94154762    -0.80600
O303        O  0.24575867  0.31645151  0.05022284    -0.80500
O304        O  0.31996041  0.35022404  0.02312155    -0.80500
O305        O  0.17611818  0.36247679  0.96884942    -0.80500
C306        C  0.17398081  0.33116536  0.97702404     1.09200
C307        C  0.31529031  0.31939966  0.01275092     1.09100
C308        C  0.23036869  0.33634057  0.91619179     1.09300
C309        C  0.26137722  0.32735202  0.07647232     1.09100
O310        O  0.21992588  0.38471922  0.07120999    -0.80500
O311        O  0.27766856  0.39001851  0.92482382    -0.80500
O312        O  0.19385938  0.42599606  0.00127130    -0.80500
O313        O  0.30731177  0.42035161  0.99843129    -0.80500
O314        O  0.32862433  0.37784053  0.96919314    -0.80500
O315        O  0.17014126  0.38179995  0.02627335    -0.80500
O316        O  0.25392828  0.42412680  0.04732492    -0.80400
O317        O  0.24878575  0.42951020  0.95401140    -0.80500
Co318      Co  0.21180378  0.35055930  0.03279526     1.51500
Co319      Co  0.28291804  0.35142201  0.95971160     1.51700
Co320      Co  0.21346195  0.39577546  0.96416037     1.51600
Co321      Co  0.28583348  0.38789734  0.03248959     1.51500
O322        O  0.24844317  0.37124759  0.99744614    -1.42400
C323        C  0.23272844  0.41502368  0.07052099     1.09200
C324        C  0.26723880  0.42094175  0.92875167     1.09200
C325        C  0.16770463  0.41295747  0.01661247     1.09200
C326        C  0.33280989  0.40787058  0.98187794     1.09200
C327        C  0.24827701  0.23713132  0.71596495     0.02000
C328        C  0.22221144  0.22489003  0.73979856     0.02000
C329        C  0.21174573  0.24620867  0.76835788     0.02000
C330        C  0.23128891  0.27663322  0.77644767     0.02000
C331        C  0.25876651  0.28795662  0.75386228     0.02000
C332        C  0.26871125  0.26688649  0.72487207     0.02000
O333        O  0.56748334  0.27786539  0.61633216    -0.80500
O334        O  0.42784685  0.22103247  0.60887381    -0.80500
O335        O  0.49709783  0.19055740  0.58189222    -0.80500
O336        O  0.50122026  0.30841295  0.59020003    -0.80400
O337        O  0.46982637  0.16753900  0.62455188    -0.80600
O338        O  0.52364314  0.32941338  0.63540376    -0.80500
O339        O  0.45522251  0.25981484  0.57623972    -0.80500
O340        O  0.54558788  0.24347889  0.57611844    -0.80500
C341        C  0.56669578  0.26657110  0.58530415     1.09200
C342        C  0.43291595  0.23670816  0.58008618     1.09100
C343        C  0.48145537  0.16461671  0.59424704     1.09300
C344        C  0.51354702  0.33436922  0.60474853     1.09100
O345        O  0.50255737  0.28831591  0.69499120    -0.80500
O346        O  0.48896446  0.19963565  0.68812254    -0.80500
O347        O  0.57810414  0.22027337  0.63783602    -0.80500
O348        O  0.41659253  0.27444762  0.63798744    -0.80500
O349        O  0.43630354  0.24593241  0.68089478    -0.80500
O350        O  0.55289097  0.24147774  0.68192489    -0.80500
O351        O  0.46749931  0.31606472  0.65916379    -0.80400
O352        O  0.52601235  0.17616986  0.65100148    -0.80500
Co353      Co  0.53365368  0.28095106  0.65629403     1.51500
Co354      Co  0.45917131  0.21230511  0.65007858     1.51700
Co355      Co  0.53286051  0.21100702  0.61256570     1.51600
Co356      Co  0.46357091  0.28656267  0.61644769     1.51500
O357        O  0.49733416  0.24762365  0.63361013    -1.42400
C358        C  0.47901422  0.31012291  0.68954703     1.09200
C359        C  0.51198302  0.17768086  0.68091496     1.09200
C360        C  0.58033208  0.23041800  0.66855754     1.09200
C361        C  0.41099823  0.26109750  0.66726306     1.09200
O362        O  0.32327649  0.98306756  0.20400439    -0.80500
O363        O  0.32309369  0.99524332  0.29978364    -0.80500
O364        O  0.37896032  0.91546436  0.23800241    -0.80500
O365        O  0.35986283  0.07593652  0.26733593    -0.80400
O366        O  0.33316351  0.94034735  0.25904628    -0.80600
O367        O  0.31894956  0.04468920  0.24449735    -0.80500
O368        O  0.36128616  0.03184576  0.31957444    -0.80500
O369        O  0.36966131  0.95529845  0.18570904    -0.80500
C370        C  0.33737414  0.96074132  0.18456560     1.09200
C371        C  0.33024441  0.02147859  0.31713209     1.09100
C372        C  0.34708833  0.91393279  0.24676106     1.09300
C373        C  0.32846227  0.07351409  0.25674617     1.09100
O374        O  0.38453792  0.06407676  0.21301094    -0.80500
O375        O  0.40338401  0.93129653  0.29069370    -0.80500
O376        O  0.43103866  0.99499419  0.19476371    -0.80500
O377        O  0.43090348  0.00971043  0.30770230    -0.80500
O378        O  0.38995432  0.98037174  0.33338601    -0.80500
O379        O  0.38347258  0.01285009  0.17036290    -0.80500
O380        O  0.42863293  0.04978724  0.24614398    -0.80400
O381        O  0.44066759  0.95767545  0.25648093    -0.80500
Co382      Co  0.35339614  0.02331467  0.21219849     1.51500
Co383      Co  0.36238972  0.96430543  0.29214662     1.51700
Co384      Co  0.40457040  0.95952985  0.22183523     1.51600
Co385      Co  0.39532145  0.03817320  0.28227044     1.51500
O386        O  0.37910460  0.99660247  0.25205813    -1.42400
C387        C  0.41548661  0.06878824  0.22310245     1.09200
C388        C  0.43406892  0.93481168  0.27857339     1.09200
C389        C  0.41553333  0.00573657  0.16777554     1.09200
C390        C  0.42003784  0.99372259  0.33444152     1.09200
C391        C  0.49056010  0.02876632  0.52457845     0.02000
C392        C  0.46802289  0.01773844  0.49724441     0.02000
C393        C  0.47990123  0.99069654  0.47434768     0.02000
C394        C  0.50999068  0.97022687  0.48299790     0.02000
C395        C  0.53123961  0.98016112  0.51158859     0.02000
C396        C  0.51993833  0.00757360  0.53384423     0.02000
O397        O  0.46122923  0.75274945  0.44189060    -0.80500
O398        O  0.54880320  0.73939148  0.43951272    -0.80500
O399        O  0.47546233  0.66659982  0.38561810    -0.80500
O400        O  0.52865240  0.82849371  0.38788044    -0.80400
O401        O  0.50156183  0.68725148  0.42947784    -0.80600
O402        O  0.50503671  0.80486251  0.43174957    -0.80500
O403        O  0.57320040  0.77683937  0.40318491    -0.80500
O404        O  0.43329362  0.71762442  0.40689675    -0.80500
C405        C  0.43871356  0.73016316  0.43707931     1.09200
C406        C  0.57105793  0.76235966  0.43287489     1.09100
C407        C  0.48624024  0.66209823  0.41583248     1.09300
C408        C  0.51779528  0.83154837  0.41852166     1.09100
O409        O  0.47192986  0.81708049  0.36343452    -0.80500
O410        O  0.53227932  0.67774413  0.36025518    -0.80500
O411        O  0.44391979  0.75035389  0.33616172    -0.80500
O412        O  0.56114690  0.74705374  0.33434098    -0.80500
O413        O  0.58409612  0.72087815  0.37730637    -0.80500
O414        O  0.42101513  0.77264134  0.38074926    -0.80500
O415        O  0.50767294  0.79231978  0.32610854    -0.80400
O416        O  0.49526156  0.70419781  0.32512206    -0.80500
Co417      Co  0.46815186  0.78365400  0.40361545     1.51500
Co418      Co  0.53810827  0.70949184  0.40111241     1.51700
Co419      Co  0.46510343  0.71332265  0.36418568     1.51600
Co420      Co  0.53948760  0.78267345  0.36355583     1.51500
O421        O  0.50299280  0.74721869  0.38310188    -1.42400
C422        C  0.48508054  0.81468917  0.33318344     1.09200
C423        C  0.51852127  0.68190195  0.33053007     1.09200
C424        C  0.41746115  0.76341393  0.34968608     1.09200
C425        C  0.58763297  0.73336867  0.34736047     1.09200
O426        O  0.57355978  0.95778848  0.74694301    -0.80500
O427        O  0.57025818  0.04133269  0.75750995    -0.80500
O428        O  0.63020842  0.97718838  0.83280981    -0.80500
O429        O  0.62428468  0.02610047  0.66904896    -0.80400
O430        O  0.58445694  0.99860637  0.81038768    -0.80600
O431        O  0.58109872  0.00073540  0.69266266    -0.80500
O432        O  0.60384294  0.06864703  0.71971561    -0.80500
O433        O  0.61064130  0.93281103  0.78316574    -0.80500
C434        C  0.58012952  0.93628302  0.77033877     1.09200
C435        C  0.57423669  0.06346638  0.73413877     1.09100
C436        C  0.59896919  0.98625385  0.83659290     1.09300
C437        C  0.59360631  0.01525165  0.66642829     1.09100
O438        O  0.65169569  0.97098201  0.68212275    -0.80500
O439        O  0.65268106  0.03322754  0.81713875    -0.80500
O440        O  0.67966635  0.94276343  0.74989936    -0.80500
O441        O  0.67514110  0.06178887  0.74957221    -0.80500
O442        O  0.63043817  0.08330237  0.77363004    -0.80500
O443        O  0.63493365  0.91995671  0.72696885    -0.80500
O444        O  0.68672153  0.00957846  0.70596935    -0.80400
O445        O  0.69042623  0.99661414  0.79354517    -0.80500
Co446      Co  0.61112944  0.96584461  0.71516000     1.51500
Co447      Co  0.61024596  0.03566198  0.78673899     1.51700
Co448      Co  0.65185147  0.96547032  0.78617103     1.51600
Co449      Co  0.64703884  0.03842387  0.71468404     1.51500
O450        O  0.63055980  0.00126275  0.75065612    -1.42400
C451        C  0.68129768  0.98582794  0.68483009     1.09200
C452        C  0.68373111  0.02161084  0.81310211     1.09200
C453        C  0.66568516  0.91631095  0.73770493     1.09200
C454        C  0.66063236  0.08804568  0.76151720     1.09200
C455        C  0.48630371  0.00415698  0.03186580     0.02000
C456        C  0.47640969  0.97677164  0.00880204     0.02000
C457        C  0.49768130  0.96904943  0.97949798     0.02000
C458        C  0.52391716  0.99331534  0.96906115     0.02000
C459        C  0.53241516  0.02249672  0.99055057     0.02000
C460        C  0.51272478  0.02878568  0.02176453     0.02000
O461        O  0.45493472  0.25363891  0.06488882    -0.80500
O462        O  0.54553786  0.25774457  0.06751573    -0.80500
O463        O  0.47743921  0.33484454  0.12030679    -0.80500
O464        O  0.52402319  0.17151930  0.11691541    -0.80400
O465        O  0.50094664  0.31183323  0.07596507    -0.80600
O466        O  0.50036644  0.19564163  0.07233080    -0.80500
O467        O  0.56942607  0.22152874  0.10508775    -0.80500
O468        O  0.43274744  0.28647343  0.10585523    -0.80500
C469        C  0.43375351  0.27679427  0.07474586     1.09200
C470        C  0.56782838  0.23519014  0.07509914     1.09100
C471        C  0.48807997  0.33830554  0.08943163     1.09300
C472        C  0.51357331  0.16881700  0.08601851     1.09100
O473        O  0.46794577  0.18427038  0.13932201    -0.80500
O474        O  0.53172394  0.32217460  0.14552154    -0.80500
O475        O  0.44015755  0.25264096  0.17193698    -0.80500
O476        O  0.55449430  0.25193852  0.17289963    -0.80500
O477        O  0.58024306  0.27682300  0.13035481    -0.80500
O478        O  0.41923000  0.22990839  0.12585413    -0.80500
O479        O  0.50128860  0.20669905  0.17960436    -0.80400
O480        O  0.49660665  0.29543306  0.18219380    -0.80500
Co481      Co  0.46445100  0.21909243  0.10109646     1.51500
Co482      Co  0.53615681  0.28921134  0.10507524     1.51700
Co483      Co  0.46508181  0.28866362  0.14453568     1.51600
Co484      Co  0.53450685  0.21623633  0.14320543     1.51500
O485        O  0.50000623  0.25307364  0.12331826    -1.42400
C486        C  0.47682745  0.18728089  0.17090543     1.09200
C487        C  0.51850890  0.31853093  0.17567113     1.09200
C488        C  0.41457622  0.23906198  0.15673662     1.09200
C489        C  0.58142060  0.26589410  0.16091781     1.09200
O490        O  0.17859931  0.15066721  0.46991193    -0.80500
O491        O  0.32465642  0.13659517  0.53363592    -0.80500
O492        O  0.25021558  0.17720471  0.55715191    -0.80500
O493        O  0.25778211  0.18738909  0.44872425    -0.80400
O494        O  0.27486765  0.13250428  0.58038806    -0.80600
O495        O  0.22718486  0.14873668  0.42203061    -0.80500
O496        O  0.30147651  0.18056172  0.50630942    -0.80500
O497        O  0.20463226  0.18661510  0.50457371    -0.80500
C498        C  0.18052892  0.18000852  0.48417558     1.09200
C499        C  0.32578827  0.16786558  0.52373189     1.09100
C500        C  0.26463866  0.16365883  0.58309764     1.09300
C501        C  0.24215782  0.17812974  0.42142726     1.09100
O502        O  0.24839607  0.07970136  0.44590887    -0.80500
O503        O  0.24648240  0.07149752  0.54410556    -0.80500
O504        O  0.16999464  0.12058887  0.52315083    -0.80500
O505        O  0.32874360  0.11496130  0.47682280    -0.80500
O506        O  0.30162533  0.07227000  0.50061159    -0.80500
O507        O  0.19522905  0.08072388  0.49320638    -0.80500
O508        O  0.28185183  0.12183191  0.42962489    -0.80400
O509        O  0.21710062  0.11128236  0.57144963    -0.80500
Co510      Co  0.21539857  0.11493011  0.46134798     1.51500
Co511      Co  0.28367299  0.10427075  0.53618041     1.51700
Co512      Co  0.21372514  0.14864306  0.53599466     1.51600
Co513      Co  0.28896911  0.15079460  0.46886738     1.51500
O514        O  0.25035194  0.12958025  0.50040689    -1.42400
C515        C  0.27070786  0.09201193  0.42558337     1.09200
C516        C  0.22753608  0.08035634  0.56872239     1.09200
C517        C  0.16851218  0.09103474  0.50884243     1.09200
C518        C  0.32862404  0.08313078  0.48583464     1.09200
C519        C  0.77258370  0.77666008  0.26288812     0.02000
C520        C  0.74681621  0.76673576  0.28782250     0.02000
C521        C  0.72562912  0.73719300  0.28082169     0.02000
C522        C  0.73316901  0.71589004  0.25135319     0.02000
C523        C  0.76126726  0.72445242  0.22841405     0.02000
C524        C  0.78234131  0.75385003  0.23541024     0.02000
O525        O  0.60642181  0.56861183  0.28396548    -0.80500
O526        O  0.60401238  0.42997808  0.22026958    -0.80500
O527        O  0.57657045  0.50211293  0.19204632    -0.80500
O528        O  0.57417431  0.49899489  0.30957692    -0.80400
O529        O  0.62044664  0.47527927  0.17052405    -0.80600
O530        O  0.61804872  0.52231104  0.33371978    -0.80500
O531        O  0.56683794  0.45564655  0.25553822    -0.80500
O532        O  0.56901459  0.54585666  0.24731951    -0.80500
C533        C  0.57624730  0.56739085  0.27035506     1.09200
C534        C  0.57362405  0.43338610  0.23312931     1.09100
C535        C  0.59000756  0.48725471  0.16635344     1.09300
C536        C  0.58699461  0.51173703  0.33631471     1.09100
O537        O  0.68094708  0.49957014  0.29830514    -0.80500
O538        O  0.68333456  0.49340425  0.20817021    -0.80500
O539        O  0.63346479  0.57944850  0.22903613    -0.80500
O540        O  0.62786885  0.41726370  0.27666203    -0.80500
O541        O  0.67286650  0.43885699  0.25196951    -0.80500
O542        O  0.67577263  0.55355349  0.25387967    -0.80500
O543        O  0.64245548  0.46596434  0.32377893    -0.80400
O544        O  0.64725996  0.53028232  0.18317591    -0.80500
Co545      Co  0.64471628  0.53301530  0.28889908     1.51500
Co546      Co  0.64446725  0.46266254  0.21640791     1.51700
Co547      Co  0.60707160  0.53560974  0.21622779     1.51600
Co548      Co  0.60369947  0.46296927  0.28823131     1.51500
O549        O  0.62478264  0.49847010  0.25239947    -1.42400
C550        C  0.67309448  0.47859103  0.32179879     1.09200
C551        C  0.67730386  0.51645830  0.18607636     1.09200
C552        C  0.66398893  0.58088974  0.24094311     1.09200
C553        C  0.65844429  0.41284416  0.26526531     1.09200
C554        C  0.76878908  0.23500217  0.27877138     0.02000
C555        C  0.76033568  0.21045449  0.25181342     0.02000
C556        C  0.73476285  0.22109013  0.22635417     0.02000
C557        C  0.71138437  0.24869344  0.23479528     0.02000
C558        C  0.71745339  0.27062092  0.26346820     0.02000
C559        C  0.74439032  0.26177454  0.28691573     0.02000
C560        C  0.78101597  0.74032487  0.72894489     0.02000
C561        C  0.77146417  0.71649302  0.75628114     0.02000
C562        C  0.74396976  0.72717640  0.77973594     0.02000
C563        C  0.72217486  0.75631985  0.77054648     0.02000
C564        C  0.73079754  0.77795459  0.74164925     0.02000
C565        C  0.75970412  0.76948783  0.72015828     0.02000
O566        O  0.17965440  0.00389313  0.79564051    -0.80500
O567        O  0.18385088  0.99937035  0.70796089    -0.80500
O568        O  0.12814676  0.91846428  0.76907636    -0.80500
O569        O  0.12637158  0.08238955  0.72599972    -0.80400
O570        O  0.17419925  0.94205456  0.74827723    -0.80600
O571        O  0.17126020  0.06083709  0.75099513    -0.80500
O572        O  0.14720193  0.03463988  0.68121282    -0.80500
O573        O  0.13954362  0.96746464  0.81367059    -0.80500
C574        C  0.16987664  0.97960896  0.81545844     1.09200
C575        C  0.17784116  0.02239661  0.68591862     1.09100
C576        C  0.15967891  0.91526425  0.75985539     1.09300
C577        C  0.15714093  0.08652462  0.73647583     1.09100
O578        O  0.09958457  0.06774132  0.77991822    -0.80500
O579        O  0.10739530  0.93233511  0.71302650    -0.80500
O580        O  0.07151871  0.99712418  0.80626929    -0.80500
O581        O  0.07783139  0.00087206  0.68717184    -0.80500
O582        O  0.12433341  0.97947386  0.66566326    -0.80500
O583        O  0.11602539  0.02284870  0.82831380    -0.80500
O584        O  0.06443642  0.04305539  0.74217597    -0.80400
O585        O  0.06559359  0.95297727  0.74712670    -0.80500
Co586      Co  0.14130611  0.03562142  0.78459617     1.51500
Co587      Co  0.14653915  0.96650866  0.71241245     1.51700
Co588      Co  0.10174404  0.96311358  0.78064526     1.51600
Co589      Co  0.10445965  0.03661973  0.71208702     1.51500
O590        O  0.12331434  0.00041735  0.74761982    -1.42400
C591        C  0.06934226  0.06355227  0.76676340     1.09200
C592        C  0.07577868  0.93293728  0.72341400     1.09200
C593        C  0.08508579  0.01288806  0.83164373     1.09200
C594        C  0.09288863  0.98842230  0.66125679     1.09200
O595        O  0.75249003  0.44077544  0.54370749    -0.80500
O596        O  0.76820256  0.43340696  0.45293373    -0.80500
O597        O  0.83461402  0.37609675  0.52661665    -0.80500
O598        O  0.67284997  0.38708160  0.47583097    -0.80400
O599        O  0.81837423  0.41798603  0.49375115    -0.80600
O600        O  0.69660415  0.43151048  0.49989820    -0.80500
O601        O  0.72230603  0.40588002  0.43809109    -0.80500
O602        O  0.78641147  0.40229106  0.57037268    -0.80500
C603        C  0.77500535  0.43319888  0.56586231     1.09200
C604        C  0.74110440  0.43248116  0.43611545     1.09100
C605        C  0.84166572  0.40440557  0.51192696     1.09300
C606        C  0.66979864  0.41772797  0.48711681     1.09100
O607        O  0.68383415  0.36823709  0.53548888    -0.80500
O608        O  0.81597030  0.34555055  0.47190574    -0.80500
O609        O  0.74738269  0.33599011  0.56394484    -0.80500
O610        O  0.70725332  0.33965272  0.43081636    -0.80500
O611        O  0.76242570  0.35841225  0.42655515    -0.80500
O612        O  0.72849502  0.38292183  0.58576284    -0.80500
O613        O  0.70369609  0.32632251  0.50270304    -0.80400
O614        O  0.79204407  0.31650992  0.51479645    -0.80500
Co615      Co  0.71828628  0.40533907  0.53828185     1.51500
Co616      Co  0.78817853  0.38892156  0.46482202     1.51700
Co617      Co  0.78695125  0.35886094  0.54129947     1.51600
Co618      Co  0.71976927  0.36395975  0.47088082     1.51500
O619        O  0.75339026  0.38154585  0.50586762    -1.42400
C620        C  0.68208982  0.33741179  0.52527765     1.09200
C621        C  0.81212056  0.31787497  0.48927433     1.09200
C622        C  0.73621550  0.35128784  0.58995799     1.09200
C623        C  0.73584610  0.34140805  0.41402597     1.09200
C624        C  0.04209331  0.50668158  0.49267957     0.02000
C625        C  0.01897547  0.51949812  0.51940501     0.02000
C626        C  0.98966743  0.49920332  0.52940956     0.02000
C627        C  0.97817874  0.47226418  0.50748409     0.02000
C628        C  0.99799259  0.46326528  0.47756453     0.02000
C629        C  0.02568057  0.48624912  0.46607258     0.02000
O630        O  0.82159189  0.64439424  0.03966941    -0.80500
O631        O  0.68205086  0.65041375  0.97247388    -0.80500
O632        O  0.75676038  0.68829703  0.95081632    -0.80500
O633        O  0.74815634  0.67910706  0.06287967    -0.80400
O634        O  0.73035215  0.64573744  0.92538653    -0.80600
O635        O  0.77231549  0.63395581  0.08521709    -0.80500
O636        O  0.70329597  0.68895186  0.00823595    -0.80500
O637        O  0.79908264  0.68777689  0.01092930    -0.80500
C638        C  0.82198675  0.67616650  0.03100460     1.09200
C639        C  0.68383296  0.68135163  0.98339220     1.09100
C640        C  0.74206762  0.67638049  0.92399140     1.09300
C641        C  0.76225990  0.66504461  0.08860717     1.09100
O642        O  0.74934780  0.57282371  0.04709228    -0.80500
O643        O  0.75348463  0.57956926  0.95126845    -0.80500
O644        O  0.83253802  0.62336479  0.98398144    -0.80500
O645        O  0.66988846  0.62325343  0.02569873    -0.80500
O646        O  0.69337922  0.58123819  0.99684254    -0.80500
O647        O  0.80569178  0.57884400  0.00483629    -0.80500
O648        O  0.71625558  0.61049855  0.07397607    -0.80400
O649        O  0.78629380  0.62316480  0.93569513    -0.80500
Co650      Co  0.78417397  0.60832839  0.04068178     1.51500
Co651      Co  0.71813961  0.61422053  0.96555986     1.51700
Co652      Co  0.78974362  0.65510568  0.97395938     1.51600
Co653      Co  0.71305252  0.65016954  0.03970038     1.51500
O654        O  0.75100852  0.63200783  0.00476349    -1.42400
C655        C  0.72788508  0.57982534  0.07039915     1.09200
C656        C  0.77719332  0.59236469  0.93212470     1.09200
C657        C  0.83296896  0.59120109  0.99177200     1.09200
C658        C  0.66673397  0.59375250  0.01193048     1.09200
C659        C  0.47967350  0.50833557  0.96761083     0.02000
C660        C  0.50875129  0.53018900  0.97537749     0.02000
C661        C  0.53038934  0.52234401  0.00455222     0.02000
C662        C  0.51954214  0.49671381  0.02935199     0.02000
C663        C  0.49003736  0.47525201  0.02160494     0.02000
C664        C  0.46846087  0.48253532  0.99208328     0.02000
O665        O  0.79699886  0.18228990  0.01427297    -0.80500
O666        O  0.70957794  0.18573491  0.00344346    -0.80500
O667        O  0.77909904  0.14081510  0.92282879    -0.80500
O668        O  0.72271820  0.12502880  0.08266656    -0.80400
O669        O  0.75364078  0.18268472  0.94870168    -0.80600
O670        O  0.74958393  0.16991553  0.06397597    -0.80500
O671        O  0.68042653  0.14613023  0.03263090    -0.80500
O672        O  0.82327781  0.14892256  0.97575646    -0.80500
C673        C  0.81986646  0.17760239  0.99169918     1.09200
C674        C  0.68540182  0.17752907  0.02336004     1.09100
C675        C  0.76706767  0.17126284  0.92135057     1.09300
C676        C  0.73372265  0.15527728  0.08829519     1.09100
O677        O  0.77837589  0.09981605  0.07032246    -0.80500
O678        O  0.72177187  0.11754157  0.93162595    -0.80500
O679        O  0.80997487  0.07687930  0.99756092    -0.80500
O680        O  0.69391289  0.07991456  0.99508058    -0.80500
O681        O  0.67060189  0.12623640  0.97582599    -0.80500
O682        O  0.83101159  0.11751529  0.02870261    -0.80500
O683        O  0.74322103  0.06517451  0.04181546    -0.80400
O684        O  0.75611090  0.07546005  0.94911189    -0.80500
Co685      Co  0.78561071  0.14205792  0.04110072     1.51500
Co686      Co  0.71728933  0.15200821  0.96837350     1.51700
Co687      Co  0.78873705  0.11077022  0.96522281     1.51600
Co688      Co  0.71327734  0.10488359  0.03471910     1.51500
O689        O  0.75154210  0.12692746  0.00219529    -1.42400
C690        C  0.76667401  0.06971698  0.06364205     1.09200
C691        C  0.73357893  0.08725904  0.92837272     1.09200
C692        C  0.83544398  0.08862361  0.01408059     1.09200
C693        C  0.66773936  0.09410257  0.98215324     1.09200
O694        O  0.35195743  0.52703480  0.67958406    -0.80500
O695        O  0.35845860  0.47824896  0.82706236    -0.80500
O696        O  0.31836651  0.44861465  0.75987992    -0.80500
O697        O  0.32609448  0.55697548  0.74852115    -0.80400
O698        O  0.36156719  0.42377472  0.78518494    -0.80600
O699        O  0.36760799  0.57984511  0.71997480    -0.80500
O700        O  0.32052570  0.51147904  0.79995885    -0.80500
O701        O  0.31287528  0.49913117  0.71036483    -0.80500
C702        C  0.32082506  0.51693562  0.68457496     1.09200
C703        C  0.32862447  0.49242229  0.82480009     1.09100
C704        C  0.33035562  0.42205240  0.77492964     1.09300
C705        C  0.33745542  0.58292368  0.73303900     1.09100
O706        O  0.43187326  0.54351005  0.74039135    -0.80500
O707        O  0.42594841  0.44846489  0.75492721    -0.80500
O708        O  0.37385055  0.46963530  0.67369123    -0.80500
O709        O  0.38690819  0.53303913  0.82730717    -0.80500
O710        O  0.42728369  0.50114553  0.80501795    -0.80500
O711        O  0.41952667  0.49361456  0.69411037    -0.80500
O712        O  0.39676637  0.57344749  0.77366524    -0.80400
O713        O  0.38148684  0.42768714  0.72705187    -0.80500
Co714      Co  0.39234598  0.53294154  0.71184382     1.51500
Co715      Co  0.39298378  0.46629997  0.78957904     1.51700
Co716      Co  0.34762783  0.46483504  0.72073080     1.51600
Co717      Co  0.35762167  0.54065391  0.78443805     1.51500
O718        O  0.37326918  0.50089714  0.75185772    -1.42400
C719        C  0.42649691  0.56843256  0.76005495     1.09200
C720        C  0.41279498  0.42583706  0.73545014     1.09200
C721        C  0.40542152  0.47857962  0.66921406     1.09200
C722        C  0.41679711  0.51963042  0.82979430     1.09200
O723        O  0.77571820  0.90145983  0.43197795    -0.80500
O724        O  0.72454772  0.89506825  0.57414934    -0.80500
O725        O  0.69298544  0.92501725  0.50773786    -0.80500
O726        O  0.80947166  0.93047794  0.50152357    -0.80400
O727        O  0.67189421  0.88007617  0.53230670    -0.80600
O728        O  0.83035473  0.88872408  0.47203477    -0.80500
O729        O  0.75769956  0.93391756  0.54811574    -0.80500
O730        O  0.74061299  0.93791292  0.45852314    -0.80500
C731        C  0.76369428  0.93194766  0.43652011     1.09200
C732        C  0.73613845  0.92586603  0.57099980     1.09100
C733        C  0.66772170  0.91115470  0.52285936     1.09300
C734        C  0.83466926  0.91830831  0.48500072     1.09100
O735        O  0.80020983  0.82402687  0.49377214    -0.80500
O736        O  0.70943631  0.81959227  0.50742516    -0.80500
O737        O  0.72135203  0.87428173  0.42284328    -0.80500
O738        O  0.78199329  0.87099261  0.58163993    -0.80500
O739        O  0.75822041  0.82815270  0.55694983    -0.80500
O740        O  0.74929587  0.83168646  0.44510310    -0.80500
O741        O  0.82674866  0.86069687  0.52821016    -0.80400
O742        O  0.68025314  0.85690557  0.47535926    -0.80500
Co743      Co  0.78559186  0.86178148  0.46395329     1.51500
Co744      Co  0.71924507  0.85648589  0.53955987     1.51700
Co745      Co  0.71219460  0.89799358  0.46940801     1.51600
Co746      Co  0.79042557  0.89818874  0.53646355     1.51500
O747        O  0.75199843  0.87906918  0.50233072    -1.42400
C748        C  0.82500031  0.83125994  0.51357649     1.09200
C749        C  0.68551596  0.82619593  0.48644052     1.09200
C750        C  0.73385640  0.84418216  0.41932729     1.09200
C751        C  0.77156686  0.84000841  0.58380805     1.09200
O752        O  0.07128392  0.55910681  0.25948376    -0.80500
O753        O  0.06341506  0.45495856  0.23648568    -0.80500
O754        O  0.11349860  0.53525214  0.16832794    -0.80500
O755        O  0.12107200  0.47412211  0.32295070    -0.80400
O756        O  0.07222653  0.50267968  0.18877983    -0.80600
O757        O  0.07840184  0.50576539  0.30446178    -0.80500
O758        O  0.10028231  0.44005288  0.27442456    -0.80500
O759        O  0.10810507  0.58074520  0.22104199    -0.80500
C760        C  0.07965493  0.58206899  0.23791790     1.09200
C761        C  0.07078323  0.43716538  0.26192980     1.09100
C762        C  0.08388814  0.52133042  0.16479348     1.09300
C763        C  0.09164754  0.48908238  0.32886230     1.09100
O764        O  0.15136625  0.52731595  0.31522104    -0.80500
O765        O  0.14096706  0.47682071  0.17376501    -0.80500
O766        O  0.17762720  0.55902331  0.24557618    -0.80500
O767        O  0.16412612  0.42674152  0.27826981    -0.80500
O768        O  0.13869605  0.42675858  0.22595142    -0.80500
O769        O  0.13917705  0.58352972  0.27687730    -0.80500
O770        O  0.18371108  0.49511365  0.28112935    -0.80400
O771        O  0.17881746  0.51091921  0.19807328    -0.80500
Co772      Co  0.10974452  0.54091940  0.28605829     1.51500
Co773      Co  0.10466494  0.46909394  0.20999955     1.51700
Co774      Co  0.14331284  0.54365561  0.21115635     1.51600
Co775      Co  0.14136471  0.46951836  0.27251168     1.51500
O776        O  0.12109802  0.50831465  0.24515263    -1.42400
C777        C  0.18035711  0.51306895  0.30787338     1.09200
C778        C  0.17077753  0.49028236  0.17493795     1.09200
C779        C  0.16901110  0.58455354  0.26318956     1.09200
C780        C  0.15922810  0.41221089  0.24915299     1.09200
C781        C  0.47903556  0.48825737  0.53474175     0.02000
C782        C  0.47003391  0.51630503  0.51230827     0.02000
C783        C  0.49295654  0.52639080  0.48483171     0.02000
C784        C  0.52091861  0.50409412  0.47496697     0.02000
C785        C  0.52864907  0.47433322  0.49607831     0.02000
C786        C  0.50698303  0.46573326  0.52536060     0.02000
C787        C  0.97973174  0.49400415  0.96744918     0.02000
C788        C  0.00725693  0.47094702  0.97728246     0.02000
C789        C  0.02926609  0.47957293  0.00563660     0.02000
C790        C  0.01879493  0.50693870  0.02864387     0.02000
C791        C  0.99571159  0.53354812  0.01503979     0.02000
C792        C  0.97248902  0.52488225  0.98701414     0.02000
C793        C  0.01820406  0.53194359  0.09096053    -0.06100
C794        C  0.03185366  0.50835379  0.06657190    -0.00200
C795        C  0.05413598  0.48329427  0.08158663    -0.08700
C796        C  0.07724823  0.49460455  0.10726011    -0.06100
C797        C  0.06643858  0.52035181  0.13036077    -0.00200
C798        C  0.03503568  0.53807553  0.12286808    -0.08700
C799        C  0.01940924  0.56283332  0.14842004     0.61700
H800        H  0.99414397  0.54512913  0.08549415     0.12400
H801        H  0.09790087  0.47730949  0.11538346     0.12400
C802        C  0.03731076  0.44958201  0.09261802     0.62000
F803        F  0.99016668  0.57900265  0.13537376    -0.23200
F804        F  0.04354838  0.58783196  0.15651092    -0.20500
F805        F  0.00997335  0.54489752  0.17786569    -0.20200
F806        F  0.06227402  0.42434856  0.09758398    -0.20300
F807        F  0.01337102  0.43836972  0.06906086    -0.20600
F808        F  0.01977433  0.45429946  0.12348555    -0.23300
C809        C  0.45245497  0.50069152  0.62999948    -0.06100
C810        C  0.42431833  0.47779320  0.63445509    -0.00200
C811        C  0.41641553  0.45584343  0.60607751    -0.08700
C812        C  0.43340820  0.46113692  0.57375161    -0.06100
C813        C  0.46124786  0.48430621  0.56966207    -0.00200
C814        C  0.47245592  0.50240786  0.59945082    -0.08700
C815        C  0.50595074  0.52293083  0.60137821     0.61700
H816        H  0.46013091  0.51683935  0.65136497     0.12400
H817        H  0.42626501  0.44579874  0.55173078     0.12400
C818        C  0.39426948  0.42398333  0.61083506     0.62000
F819        F  0.52306710  0.51497845  0.63173738    -0.23200
F820        F  0.49842547  0.55784767  0.60107233    -0.20500
F821        F  0.52865596  0.51553502  0.57493523    -0.20200
F822        F  0.36071834  0.43260560  0.61993158    -0.20300
F823        F  0.40912503  0.40386513  0.63631620    -0.20600
F824        F  0.39276961  0.40434573  0.58117846    -0.23300
C825        C  0.44439535  0.54043609  0.92295738    -0.06100
C826        C  0.46328720  0.51057305  0.93215678    -0.00200
C827        C  0.46905813  0.48529900  0.90608902    -0.08700
C828        C  0.45413408  0.49000380  0.87320146    -0.06100
C829        C  0.43554071  0.51986559  0.86390582    -0.00200
C830        C  0.43245669  0.54658793  0.88894846    -0.08700
C831        C  0.41873543  0.58262910  0.88111910     0.61700
H832        H  0.44040024  0.56017560  0.94224127     0.12400
H833        H  0.45716709  0.46965106  0.85434265     0.12400
C834        C  0.49118454  0.45301042  0.91028353     0.62000
F835        F  0.44127577  0.60691638  0.89430790    -0.23200
F836        F  0.38673034  0.58710383  0.89668296    -0.20500
F837        F  0.41586447  0.58929677  0.84625875    -0.20200
F838        F  0.47058222  0.42420003  0.90554968    -0.20300
F839        F  0.50718800  0.45021795  0.94186229    -0.20600
F840        F  0.51697002  0.45309528  0.88535384    -0.23300
C841        C  0.88676417  0.57279755  0.95906915    -0.06100
C842        C  0.86614035  0.56971297  0.98878417    -0.00200
C843        C  0.87926813  0.54834998  0.01580767    -0.08700
C844        C  0.91397196  0.53553218  0.01383365    -0.06100
C845        C  0.93610641  0.54140106  0.98521489    -0.00200
C846        C  0.92129459  0.56009779  0.95670837    -0.08700
C847        C  0.94042024  0.57101252  0.92424669     0.61700
H848        H  0.87629021  0.58651655  0.93732477     0.12400
H849        H  0.92414315  0.52003072  0.03483333     0.12400
C850        C  0.85650266  0.53786732  0.04615329     0.62000
F851        F  0.92590908  0.55452460  0.89636705    -0.23200
F852        F  0.97553520  0.56434830  0.92569432    -0.20500
F853        F  0.93650907  0.60625272  0.91912871    -0.20200
F854        F  0.82834525  0.51933584  0.03427991    -0.20300
F855        F  0.84467535  0.56665705  0.06350626    -0.20600
F856        F  0.87420097  0.51714640  0.06944653    -0.23300
C857        C  0.62897853  0.54225453  0.99761667    -0.06100
C858        C  0.63122321  0.57598383  0.01090210    -0.00200
C859        C  0.59917494  0.59206322  0.02128062    -0.08700
C860        C  0.56761144  0.57323578  0.01959413    -0.06100
C861        C  0.56581322  0.53931772  0.00738012    -0.00200
C862        C  0.59739957  0.52346141  0.99624327    -0.08700
C863        C  0.60010466  0.48678478  0.98277645     0.61700
H864        H  0.65251536  0.52984285  0.98853072     0.12400
H865        H  0.54351125  0.58517187  0.02756219     0.12400
C866        C  0.59716180  0.62944488  0.03292321     0.62000
F867        F  0.61447144  0.48740965  0.95004091    -0.23200
F868        F  0.56864424  0.46991203  0.98105634    -0.20500
F869        F  0.62173718  0.46785898  0.00416363    -0.20200
F870        F  0.61042691  0.65078241  0.00744238    -0.20300
F871        F  0.61560410  0.63352928  0.06312900    -0.20600
F872        F  0.56332201  0.64002818  0.03918461    -0.23300
C873        C  0.05982972  0.51847034  0.41847212    -0.06100
C874        C  0.03613303  0.49208972  0.42758137    -0.00200
C875        C  0.02115448  0.47640404  0.39807874    -0.08700
C876        C  0.04145894  0.47328028  0.36764735    -0.06100
C877        C  0.07337355  0.49056886  0.36343253    -0.00200
C878        C  0.07973532  0.51736506  0.38764105    -0.08700
C879        C  0.10711314  0.54475051  0.38140218     0.61700
H880        H  0.06384729  0.53946475  0.43613748     0.12400
H881        H  0.02980199  0.46137090  0.34539813     0.12400
C882        C  0.98243422  0.47696411  0.39181478     0.62000
F883        F  0.10760748  0.56928412  0.40722197    -0.23200
F884        F  0.10060659  0.56173458  0.35065705    -0.20500
F885        F  0.13940817  0.52931023  0.38040155    -0.20200
F886        F  0.97527106  0.49922606  0.36467693    -0.20300
F887        F  0.96422139  0.48919798  0.41984671    -0.20600
F888        F  0.97112579  0.44446898  0.38267912    -0.23300
C889        C  0.60870362  0.42162083  0.46685744    -0.06100
C890        C  0.63461540  0.43471767  0.48856907    -0.00200
C891        C  0.62481215  0.45995111  0.51359430    -0.08700
C892        C  0.58984391  0.47114000  0.51487110    -0.06100
C893        C  0.56411259  0.45815658  0.49289985    -0.00200
C894        C  0.57376812  0.43237609  0.46874648    -0.08700
C895        C  0.54889341  0.41384369  0.44523898     0.61700
H896        H  0.61565592  0.40182810  0.44839569     0.12400
H897        H  0.58202740  0.49039959  0.53347923     0.12400
C898        C  0.65009625  0.47408561  0.54019742     0.62000
F899        F  0.56001918  0.41730437  0.41149539    -0.23200
F900        F  0.51553578  0.42616728  0.44746379    -0.20500
F901        F  0.54859045  0.37911660  0.45380118    -0.20200
F902        F  0.67627718  0.49238735  0.52414339    -0.20300
F903        F  0.66451105  0.44744288  0.55925270    -0.20600
F904        F  0.63392163  0.49625941  0.56310014    -0.23300
C905        C  0.88042857  0.45453531  0.49944475    -0.06100
C906        C  0.87695510  0.42142793  0.51418673    -0.00200
C907        C  0.90733942  0.40571883  0.52832530    -0.08700
C908        C  0.93935925  0.42359705  0.52667474    -0.06100
C909        C  0.94244461  0.45691571  0.51245912    -0.00200
C910        C  0.91202866  0.47273817  0.49873698    -0.08700
C911        C  0.91080502  0.50807310  0.48158215     0.61700
H912        H  0.85791286  0.46679126  0.48793621     0.12400
H913        H  0.96278249  0.41058356  0.53453572     0.12400
C914        C  0.90698014  0.36947748  0.54322684     0.62000
F915        F  0.89841356  0.50473387  0.44834062    -0.23200
F916        F  0.94254000  0.52416192  0.47979071    -0.20500
F917        F  0.88838942  0.52920466  0.49979944    -0.20200
F918        F  0.89655072  0.34684431  0.51803267    -0.20300
F919        F  0.88452015  0.36785353  0.57109108    -0.20600
F920        F  0.93946389  0.35897663  0.55447844    -0.23300
C921        C  0.75119091  0.77282536  0.65617076    -0.06100
C922        C  0.76511900  0.78831715  0.68574398    -0.00200
C923        C  0.78386701  0.81967177  0.68099230    -0.08700
C924        C  0.78566085  0.83518604  0.64765136    -0.06100
C925        C  0.77065096  0.82020053  0.61806950    -0.00200
C926        C  0.75369067  0.78762950  0.62268714    -0.08700
C927        C  0.73767219  0.76813579  0.59278332     0.61700
H928        H  0.73807552  0.74836756  0.65967123     0.12400
H929        H  0.79930300  0.85949840  0.64480420     0.12400
C930        C  0.80357405  0.83740506  0.70957091     0.62000
F931        F  0.72446340  0.73641026  0.60286572    -0.23200
F932        F  0.76263034  0.76204734  0.56778865    -0.20500
F933        F  0.71054147  0.78712682  0.57896398    -0.20200
F934        F  0.83841776  0.83883689  0.70084721    -0.20300
F935        F  0.80057761  0.82076821  0.74088752    -0.20600
F936        F  0.79135582  0.87065883  0.71348393    -0.23300
C937        C  0.76688513  0.72629947  0.84046640    -0.06100
C938        C  0.74212034  0.71377642  0.81670738    -0.00200
C939        C  0.71512101  0.69248805  0.83014574    -0.08700
C940        C  0.71549537  0.68307451  0.86535311    -0.06100
C941        C  0.74062023  0.69468207  0.88908401    -0.00200
C942        C  0.76603413  0.71820805  0.87639239    -0.08700
C943        C  0.79219319  0.73481237  0.90033611     0.61700
H944        H  0.78677191  0.74341378  0.83067542     0.12400
H945        H  0.69694610  0.66369632  0.87353906     0.12400
C946        C  0.68671704  0.67607720  0.80884410     0.62000
F947        F  0.81330000  0.75816162  0.88309328    -0.23200
F948        F  0.81332053  0.70999063  0.91518928    -0.20500
F949        F  0.77473996  0.75248258  0.92600207    -0.20200
F950        F  0.68580690  0.64079066  0.81486286    -0.20300
F951        F  0.69095324  0.68130732  0.77387194    -0.20600
F952        F  0.65526021  0.68945168  0.81912396    -0.23300
C953        C  0.70483600  0.18636263  0.17871907    -0.06100
C954        C  0.73377692  0.20591950  0.18964937    -0.00200
C955        C  0.76153653  0.20996472  0.16555492    -0.08700
C956        C  0.76021584  0.19291175  0.13333225    -0.06100
C957        C  0.73204779  0.17214828  0.12335418    -0.00200
C958        C  0.70349175  0.16929240  0.14643663    -0.08700
C959        C  0.67131121  0.14893004  0.13690810     0.61700
H960        H  0.68412797  0.18226889  0.19680638     0.12400
H961        H  0.78168761  0.19559268  0.11543196     0.12400
C962        C  0.79190058  0.23358691  0.17283367     0.62000
F963        F  0.64520843  0.15229730  0.16130169    -0.23200
F964        F  0.67947465  0.11425757  0.13430350    -0.20500
F965        F  0.65845822  0.16071359  0.10574578    -0.20200
F966        F  0.81064763  0.22132933  0.20060033    -0.20300
F967        F  0.77940642  0.26631165  0.17962516    -0.20600
F968        F  0.81446819  0.23610569  0.14506206    -0.23300
C969        C  0.75875698  0.31363593  0.32141984    -0.06100
C970        C  0.74551299  0.28001687  0.32088822    -0.00200
C971        C  0.72961423  0.26661672  0.35142610    -0.08700
C972        C  0.72691112  0.28776250  0.38064897    -0.06100
C973        C  0.73917048  0.32178813  0.38092129    -0.00200
C974        C  0.75536167  0.33491016  0.35063485    -0.08700
C975        C  0.76548624  0.37224698  0.34786823     0.61700
H976        H  0.77028867  0.32368088  0.29794941     0.12400
H977        H  0.71502091  0.27736709  0.40386175     0.12400
C978        C  0.71466399  0.23058004  0.35525533     0.62000
F979        F  0.77718905  0.38084489  0.31516937    -0.23200
F980        F  0.79163175  0.37975548  0.37092343    -0.20500
F981        F  0.73623760  0.39157162  0.35494897    -0.20200
F982        F  0.73528810  0.21148488  0.37742141    -0.20300
F983        F  0.71229424  0.21348853  0.32444929    -0.20600
F984        F  0.68156091  0.23239683  0.36919401    -0.23300
C985        C  0.75005472  0.45665645  0.37833048    -0.06100
C986        C  0.73364640  0.45945480  0.41041986    -0.00200
C987        C  0.70358006  0.47964339  0.41289918    -0.08700
C988        C  0.68378951  0.48489032  0.38333506    -0.06100
C989        C  0.69666538  0.47498648  0.35107598    -0.00200
C990        C  0.73199186  0.46518295  0.34794383    -0.08700
C991        C  0.74931858  0.46092843  0.31316631     0.61700
H992        H  0.77521765  0.44419874  0.37696964     0.12400
H993        H  0.65876840  0.49767081  0.38537195     0.12400
C994        C  0.69453506  0.49924018  0.44490275     0.62000
F995        F  0.78371548  0.45095172  0.31629886    -0.23200
F996        F  0.74863312  0.49185581  0.29521630    -0.20500
F997        F  0.73191652  0.43609270  0.29470185    -0.20200
F998        F  0.71802261  0.49278306  0.47105833    -0.20300
F999        F  0.66161144  0.49041357  0.45530806    -0.20600
F1000       F  0.69513467  0.53426529  0.43766886    -0.23300
C1001       C  0.73871218  0.56268736  0.12970423    -0.06100
C1002       C  0.72283072  0.55496165  0.09816576    -0.00200
C1003       C  0.70100012  0.52583500  0.09564194    -0.08700
C1004       C  0.68990323  0.51029613  0.12608149    -0.06100
C1005       C  0.70165423  0.52164112  0.15796884    -0.00200
C1006       C  0.72957393  0.54483624  0.15975183    -0.08700
C1007       C  0.74949991  0.55181661  0.19230771     0.61700
H1008       H  0.75764922  0.58332679  0.13107528     0.12400
H1009       H  0.66963053  0.49101592  0.12508081     0.12400
C1010       C  0.68621826  0.51156545  0.06278753     0.62000
F1011       F  0.78477087  0.54925959  0.18568482    -0.23200
F1012       F  0.74156724  0.52829189  0.21801879    -0.20500
F1013       F  0.74206655  0.58477551  0.20341316    -0.20200
F1014       F  0.70149356  0.52544127  0.03378489    -0.20300
F1015       F  0.65087566  0.51788585  0.06239702    -0.20600
F1016       F  0.69159263  0.47623593  0.06194568    -0.23300
C1017       C  0.55999602  0.46653639  0.07226186    -0.06100
C1018       C  0.53727747  0.49427146  0.06472875    -0.00200
C1019       C  0.53128630  0.51866639  0.09163591    -0.08700
C1020       C  0.54891710  0.51513389  0.12360953    -0.06100
C1021       C  0.57199003  0.48778755  0.13111456    -0.00200
C1022       C  0.57686253  0.46248497  0.10485712    -0.08700
C1023       C  0.59866259  0.43043823  0.11146858     0.61700
H1024       H  0.56452415  0.44776308  0.05216696     0.12400
H1025       H  0.54438199  0.53443667  0.14327391     0.12400
C1026       C  0.50620646  0.54894093  0.08899951     0.62000
F1027       F  0.59513032  0.40644231  0.08541647    -0.23200
F1028       F  0.58837301  0.41484912  0.14200286    -0.20500
F1029       F  0.63332460  0.43925801  0.11351232    -0.20200
F1030       F  0.48199624  0.54653566  0.11534419    -0.20300
F1031       F  0.48832829  0.55050176  0.05828519    -0.20600
F1032       F  0.52444594  0.57941809  0.09275693    -0.23300
C1033       C  0.58157279  0.53077906  0.39823404    -0.06100
C1034       C  0.56806081  0.51112578  0.37090312    -0.00200
C1035       C  0.53871068  0.48977615  0.37844609    -0.08700
C1036       C  0.52325274  0.49104601  0.41172279    -0.06100
C1037       C  0.53822956  0.50861359  0.43961322    -0.00200
C1038       C  0.56813221  0.52912059  0.43235410    -0.08700
C1039       C  0.58673339  0.55053284  0.45890857     0.61700
H1040       H  0.60392179  0.54705977  0.39320448     0.12400
H1041       H  0.49942027  0.47711157  0.41654946     0.12400
C1042       C  0.52472580  0.46373274  0.35274857     0.62000
F1043       F  0.58173610  0.58512579  0.45136732    -0.23200
F1044       F  0.62190123  0.54374162  0.45771384    -0.20500
F1045       F  0.57555109  0.54377994  0.49194245    -0.20200
F1046       F  0.49932483  0.44284972  0.36717427    -0.20300
F1047       F  0.55135448  0.44241786  0.34161264    -0.20600
F1048       F  0.51018398  0.48044428  0.32483863    -0.23300
C1049       C  0.66041271  0.35104893  0.28623597    -0.06100
C1050       C  0.67486306  0.37693576  0.26484616    -0.00200
C1051       C  0.70207607  0.36668086  0.24189349    -0.08700
C1052       C  0.71506829  0.33229642  0.24341053    -0.06100
C1053       C  0.70061891  0.30650708  0.26479983    -0.00200
C1054       C  0.67204819  0.31622909  0.28612839    -0.08700
C1055       C  0.65223587  0.29136386  0.30896452     0.61700
H1056       H  0.63895948  0.35788885  0.30306040     0.12400
H1057       H  0.73662515  0.32487281  0.22704466     0.12400
C1058       C  0.71634535  0.39087878  0.21428462     0.62000
F1059       F  0.65498655  0.30158183  0.34291347    -0.23200
F1060       F  0.66402329  0.25804006  0.30617767    -0.20500
F1061       F  0.61758754  0.29162075  0.29995288    -0.20200
F1062       F  0.73390310  0.41794460  0.22925282    -0.20300
F1063       F  0.68938034  0.40364866  0.19441585    -0.20600
F1064       F  0.73930781  0.37423331  0.19236839    -0.23300
C1065       C  0.71639157  0.81095571  0.32637259    -0.06100
C1066       C  0.74319187  0.78631659  0.32204657    -0.00200
C1067       C  0.76607343  0.78126992  0.35063985    -0.08700
C1068       C  0.76225388  0.80141991  0.38056247    -0.06100
C1069       C  0.73535961  0.82551285  0.38505594    -0.00200
C1070       C  0.71184752  0.83036572  0.35719541    -0.08700
C1071       C  0.68169374  0.85546171  0.35996196     0.61700
H1072       H  0.69856717  0.81494521  0.30544396     0.12400
H1073       H  0.78064926  0.79756002  0.40135226     0.12400
C1074       C  0.79473369  0.75460415  0.35241487     0.62000
F1075       F  0.66199170  0.84765198  0.38885157    -0.23200
F1076       F  0.66015894  0.85401849  0.33151751    -0.20500
F1077       F  0.69416509  0.88881227  0.36235510    -0.20200
F1078       F  0.82665392  0.77093789  0.35250903    -0.20300
F1079       F  0.79360803  0.73205335  0.32560636    -0.20600
F1080       F  0.79148624  0.73539761  0.38245963    -0.23300
C1081       C  0.78275204  0.66597017  0.14996638    -0.06100
C1082       C  0.76403164  0.68258837  0.12341593    -0.00200
C1083       C  0.74618081  0.71380514  0.13181783    -0.08700
C1084       C  0.74659920  0.72569280  0.16620999    -0.06100
C1085       C  0.76358185  0.70802859  0.19304028    -0.00200
C1086       C  0.78292295  0.67787392  0.18438957    -0.08700
C1087       C  0.80557166  0.65793362  0.20935122     0.61700
H1088       H  0.79735090  0.64280221  0.14390400     0.12400
H1089       H  0.73340950  0.74949421  0.17263813     0.12400
C1090       C  0.72612605  0.73473134  0.10524112     0.62000
F1091       F  0.79924060  0.62295756  0.20654270    -0.23200
F1092       F  0.79983780  0.66691453  0.24305137    -0.20500
F1093       F  0.84004395  0.66387376  0.20119282    -0.20200
F1094       F  0.69924677  0.71513072  0.09229267    -0.20300
F1095       F  0.74815968  0.74479656  0.07881856    -0.20600
F1096       F  0.71169262  0.76438138  0.11912913    -0.23300
C1097       C  0.72752989  0.65371487  0.26571948    -0.06100
C1098       C  0.71452908  0.68196863  0.24700488    -0.00200
C1099       C  0.68539379  0.67658614  0.22536124    -0.08700
C1100       C  0.67093909  0.64305838  0.22316402    -0.06100
C1101       C  0.68329452  0.61482584  0.24288814    -0.00200
C1102       C  0.71196051  0.62075379  0.26537522    -0.08700
C1103       C  0.72550426  0.59356787  0.29055406     0.61700
H1104       H  0.75009267  0.65795029  0.28152830     0.12400
H1105       H  0.64893192  0.63920289  0.20627293     0.12400
C1106       C  0.66803517  0.70488299  0.20437451     0.62000
F1107       F  0.75210446  0.60604112  0.31092485    -0.23200
F1108       F  0.73854020  0.56548216  0.27308237    -0.20500
F1109       F  0.69892408  0.58306877  0.31224884    -0.20200
F1110       F  0.68226800  0.73709112  0.20958917    -0.20300
F1111       F  0.63328811  0.70667449  0.21322542    -0.20600
F1112       F  0.67059533  0.69703501  0.16973166    -0.23300
C1113       C  0.19784176  0.01096846  0.62851928    -0.06100
C1114       C  0.20362709  0.02829014  0.65954515    -0.00200
C1115       C  0.22700672  0.05600738  0.66079228    -0.08700
C1116       C  0.23559147  0.07185283  0.62981276    -0.06100
C1117       C  0.22445970  0.05807518  0.59849872    -0.00200
C1118       C  0.20938263  0.02507471  0.59739871    -0.08700
C1119       C  0.20394749  0.00605077  0.56399908     0.61700
H1120       H  0.18181983  0.98800999  0.62856774     0.12400
H1121       H  0.25020890  0.09566332  0.63018505     0.12400
C1122       C  0.24458046  0.06859999  0.69306939     0.62000
F1123       F  0.18937365  0.97383485  0.56949643    -0.23200
F1124       F  0.23552313  0.00142598  0.54756111    -0.20500
F1125       F  0.18222420  0.02491261  0.54299362    -0.20200
F1126       F  0.23389662  0.05083155  0.72214469    -0.20300
F1127       F  0.23823552  0.10344391  0.69721546    -0.20600
F1128       F  0.28005516  0.06382159  0.68954530    -0.23300
C1129       C  0.55879359  0.37377348  0.24160100    -0.06100
C1130       C  0.54913674  0.40589160  0.22786419    -0.00200
C1131       C  0.52117428  0.40866762  0.20480843    -0.08700
C1132       C  0.50907878  0.37826391  0.19018553    -0.06100
C1133       C  0.52277386  0.34615072  0.20011446    -0.00200
C1134       C  0.54460901  0.34339969  0.22898241    -0.08700
C1135       C  0.55557092  0.30980086  0.24573686     0.61700
H1136       H  0.57902960  0.37224948  0.26093379     0.12400
H1137       H  0.49036452  0.37979529  0.16941488     0.12400
C1138       C  0.50484955  0.44237569  0.19330824     0.62000
F1139       F  0.55206200  0.31261837  0.28110986    -0.23200
F1140       F  0.58997736  0.30351007  0.23791262    -0.20500
F1141       F  0.53570944  0.28210661  0.23547339    -0.20200
F1142       F  0.51221562  0.44780106  0.15887410    -0.20300
F1143       F  0.51628967  0.47034248  0.21196171    -0.20600
F1144       F  0.46919796  0.44037980  0.19753574    -0.23300
C1145       C  0.62750776  0.19771579  0.01066132    -0.06100
C1146       C  0.65841656  0.20262660  0.02903140    -0.00200
C1147       C  0.66045913  0.22808773  0.05463847    -0.08700
C1148       C  0.62935201  0.24046201  0.06763743    -0.06100
C1149       C  0.59767687  0.23083214  0.05315342    -0.00200
C1150       C  0.59668657  0.21316744  0.02170346    -0.08700
C1151       C  0.56358261  0.20907896  0.00132954     0.61700
H1152       H  0.62720486  0.18005566  0.98911201     0.12400
H1153       H  0.62974829  0.25617656  0.09052569     0.12400
C1154       C  0.69356308  0.24274975  0.06947855     0.62000
F1155       F  0.57013666  0.19599540  0.96881841    -0.23200
F1156       F  0.54742999  0.24080747  0.99743440    -0.20500
F1157       F  0.54155662  0.18684576  0.01832836    -0.20200
F1158       F  0.72303055  0.23073480  0.05321722    -0.20300
F1159       F  0.69531743  0.23508090  0.10422703    -0.20600
F1160       F  0.69302285  0.27828953  0.06562744    -0.23300
C1161       C  0.50520888  0.41325326  0.02477146    -0.06100
C1162       C  0.48684371  0.44076444  0.03961251    -0.00200
C1163       C  0.46790085  0.43438756  0.07038995    -0.08700
C1164       C  0.46960198  0.40113549  0.08589078    -0.06100
C1165       C  0.48764062  0.37307746  0.07079546    -0.00200
C1166       C  0.50560238  0.37957990  0.03906147    -0.08700
C1167       C  0.52607957  0.35183897  0.02012883     0.61700
H1168       H  0.51962343  0.41865763  0.00137410     0.12400
H1169       H  0.45612033  0.39710000  0.11012974     0.12400
C1170       C  0.44490199  0.46110134  0.08758034     0.62000
F1171       F  0.54110985  0.36425273  0.99003030    -0.23200
F1172       F  0.50427863  0.32505527  0.01109486    -0.20500
F1173       F  0.55256327  0.33960523  0.04092287    -0.20200
F1174       F  0.41110159  0.44904346  0.08844408    -0.20300
F1175       F  0.44492381  0.49256697  0.07072883    -0.20600
F1176       F  0.45595214  0.46629197  0.12096830    -0.23300
C1177       C  0.67522286  0.27868832  0.19098004    -0.06100
C1178       C  0.67785825  0.25261735  0.21605672    -0.00200
C1179       C  0.64793207  0.23255553  0.22432352    -0.08700
C1180       C  0.61747705  0.23803202  0.20548133    -0.06100
C1181       C  0.61470312  0.26401024  0.18027452    -0.00200
C1182       C  0.64361730  0.28607822  0.17419713    -0.08700
C1183       C  0.64076881  0.31890806  0.15273362     0.61700
H1184       H  0.69808368  0.29393943  0.18530979     0.12400
H1185       H  0.59532137  0.22156246  0.21083399     0.12400
C1186       C  0.64592794  0.20460692  0.25204487     0.62000
F1187       F  0.67009927  0.33929638  0.15581307    -0.23200
F1188       F  0.61256523  0.33809676  0.16387068    -0.20500
F1189       F  0.63685282  0.31125020  0.11832161    -0.20200
F1190       F  0.62073526  0.21355392  0.27592831    -0.20300
F1191       F  0.67680882  0.19934334  0.26911782    -0.20600
F1192       F  0.63630745  0.17359296  0.23737914    -0.23300
C1193       C  0.60250874  0.09317174  0.97280101    -0.06100
C1194       C  0.63355045  0.07460202  0.97885954    -0.00200
C1195       C  0.63055237  0.03810490  0.98374835    -0.08700
C1196       C  0.59722070  0.02310313  0.98720650    -0.06100
C1197       C  0.56617255  0.04194467  0.98338462    -0.00200
C1198       C  0.56916057  0.07738131  0.97373077    -0.08700
C1199       C  0.53870036  0.09969810  0.96307229     0.61700
H1200       H  0.60414061  0.12060591  0.96735685     0.12400
H1201       H  0.59514544  0.99612296  0.99430506     0.12400
C1202       C  0.66199086  0.01434619  0.98544532     0.62000
F1203       F  0.53603694  0.12747205  0.98500148    -0.23200
F1204       F  0.50753886  0.08222891  0.96342045    -0.20500
F1205       F  0.54440550  0.11198492  0.92999044    -0.20200
F1206       F  0.67911692  0.01879480  0.01631219    -0.20300
F1207       F  0.68422217  0.02137916  0.95822178    -0.20600
F1208       F  0.65267518  0.97988866  0.98320426    -0.23300
C1209       C  0.48596831  0.08647566  0.03601065    -0.06100
C1210       C  0.51459971  0.06393894  0.04016359    -0.00200
C1211       C  0.54320374  0.07673682  0.05980876    -0.08700
C1212       C  0.54210502  0.11095342  0.07326844    -0.06100
C1213       C  0.51379370  0.13363526  0.06821717    -0.00200
C1214       C  0.48509959  0.12077899  0.04909782    -0.08700
C1215       C  0.45329021  0.14306842  0.04245404     0.61700
H1216       H  0.46421661  0.07717316  0.02117692     0.12400
H1217       H  0.56393122  0.12008861  0.08824365     0.12400
C1218       C  0.57537529  0.05585910  0.06843752     0.62000
F1219       F  0.42695872  0.12475299  0.02670869    -0.23200
F1220       F  0.46219630  0.17036163  0.02106593    -0.20500
F1221       F  0.44037256  0.15569250  0.07319768    -0.20200
F1222       F  0.60407561  0.07133693  0.05347520    -0.20300
F1223       F  0.57358027  0.02221257  0.05737202    -0.20600
F1224       F  0.57998117  0.05528939  0.10376879    -0.23300
C1225       C  0.70592008  0.07260353  0.83763099    -0.06100
C1226       C  0.71072250  0.03739504  0.83396888    -0.00200
C1227       C  0.72920162  0.01872194  0.85942864    -0.08700
C1228       C  0.73785920  0.03599998  0.89005044    -0.06100
C1229       C  0.72463591  0.06931775  0.89645368    -0.00200
C1230       C  0.70579631  0.08688462  0.87005361    -0.08700
C1231       C  0.68178374  0.11787880  0.87567534     0.61700
H1232       H  0.69423165  0.08680326  0.81690059     0.12400
H1233       H  0.75286650  0.02295234  0.90978427     0.12400
C1234       C  0.73915718  0.98124829  0.85432365     0.62000
F1235       F  0.65851960  0.12204866  0.84896810    -0.23200
F1236       F  0.70077907  0.14796775  0.87814194    -0.20500
F1237       F  0.66183991  0.11290527  0.90495646    -0.20200
F1238       F  0.75812316  0.97812529  0.82416672    -0.20300
F1239       F  0.70966211  0.96113661  0.85227400    -0.20600
F1240       F  0.75924079  0.96880533  0.88121812    -0.23300
C1241       C  0.69780136  0.99477452  0.62592722    -0.06100
C1242       C  0.70648618  0.98062064  0.65791794    -0.00200
C1243       C  0.73299984  0.95593554  0.66076417    -0.08700
C1244       C  0.74351144  0.93943403  0.63080243    -0.06100
C1245       C  0.73044945  0.94983441  0.59873030    -0.00200
C1246       C  0.71059534  0.98046661  0.59564263    -0.08700
C1247       C  0.70016775  0.99804778  0.56228000     0.61700
H1248       H  0.67887444  0.01550461  0.62450340     0.12400
H1249       H  0.76110035  0.91754694  0.63258121     0.12400
C1250       C  0.74964959  0.94545638  0.69433227     0.62000
F1251       F  0.70918907  0.03259004  0.56373499    -0.23200
F1252       F  0.66457065  0.99584075  0.55856575    -0.20500
F1253       F  0.71609395  0.98423182  0.53364613    -0.20200
F1254       F  0.74009370  0.91207149  0.70215248    -0.20300
F1255       F  0.74031284  0.96692800  0.72112083    -0.20600
F1256       F  0.78541220  0.94689154  0.69087193    -0.23300
C1257       C  0.67209701  0.85553935  0.71538011    -0.06100
C1258       C  0.68323684  0.88117570  0.73853706    -0.00200
C1259       C  0.70944949  0.87182871  0.76282137    -0.08700
C1260       C  0.72479178  0.83868240  0.76111779    -0.06100
C1261       C  0.71348260  0.81304314  0.73835643    -0.00200
C1262       C  0.68610117  0.82158107  0.71526801    -0.08700
C1263       C  0.67001337  0.79627800  0.69038535     0.61700
H1264       H  0.65162713  0.86190413  0.69728746     0.12400
H1265       H  0.74594700  0.83228358  0.77821026     0.12400
C1266       C  0.72026607  0.89562402  0.79186454     0.62000
F1267       F  0.67456170  0.80833478  0.65705263    -0.23200
F1268       F  0.63479949  0.79377283  0.69714599    -0.20500
F1269       F  0.68408072  0.76356482  0.69265898    -0.20200
F1270       F  0.74238919  0.87942714  0.81498925    -0.20300
F1271       F  0.69113084  0.90613762  0.80998946    -0.20600
F1272       F  0.73748393  0.92403245  0.77870353    -0.23300
C1273       C  0.55048035  0.00679507  0.87405046    -0.06100
C1274       C  0.58030445  0.98594493  0.87095174    -0.00200
C1275       C  0.59061739  0.96617170  0.90028433    -0.08700
C1276       C  0.57078160  0.96829700  0.93110179    -0.06100
C1277       C  0.54126547  0.98958297  0.93415033    -0.00200
C1278       C  0.53031871  0.00825695  0.90437116    -0.08700
C1279       C  0.49726662  0.02950008  0.90197985     0.61700
H1280       H  0.54207942  0.02193704  0.85199403     0.12400
H1281       H  0.57897073  0.95404337  0.95362135     0.12400
C1282       C  0.62282457  0.94355691  0.89978950     0.62000
F1283       F  0.50560733  0.06352047  0.89486204    -0.23200
F1284       F  0.47751085  0.02833275  0.93154679    -0.20500
F1285       F  0.47711586  0.01717090  0.87529742    -0.20200
F1286       F  0.65193928  0.96419241  0.89666548    -0.20300
F1287       F  0.62137014  0.92080938  0.87248482    -0.20600
F1288       F  0.62612482  0.92423451  0.92974433    -0.23300
C1289       C  0.50982752  0.62323482  0.31211497    -0.06100
C1290       C  0.52455816  0.65541555  0.30489466    -0.00200
C1291       C  0.54934528  0.65874005  0.27838294    -0.08700
C1292       C  0.56459746  0.62861728  0.26583841    -0.06100
C1293       C  0.55270039  0.59605692  0.27645629    -0.00200
C1294       C  0.52229242  0.59329039  0.29663533    -0.08700
C1295       C  0.50288117  0.56013498  0.30374726     0.61700
H1296       H  0.48946537  0.62129812  0.33118764     0.12400
H1297       H  0.58664133  0.63054500  0.24842660     0.12400
C1298       C  0.56097297  0.69276227  0.26328526     0.62000
F1299       F  0.46799014  0.56513881  0.29672755    -0.23200
F1300       F  0.50635047  0.55130740  0.33811339    -0.20500
F1301       F  0.51433539  0.53325811  0.28350611    -0.20200
F1302       F  0.59490463  0.69876807  0.27269738    -0.20300
F1303       F  0.54018942  0.71985300  0.27376706    -0.18200
F1304       F  0.55928680  0.69124567  0.22772989    -0.23300
C1305       C  0.63218753  0.75658162  0.44627918    -0.06100
C1306       C  0.59927620  0.76812070  0.45687471    -0.00200
C1307       C  0.59626519  0.79145520  0.48431419    -0.08700
C1308       C  0.62608957  0.80878754  0.49441033    -0.06100
C1309       C  0.65867895  0.80054969  0.48069593    -0.00200
C1310       C  0.66250640  0.77147778  0.45916546    -0.08700
C1311       C  0.69685184  0.75610314  0.44776844     0.61700
H1312       H  0.63419935  0.73715628  0.42632575     0.12400
H1313       H  0.62372650  0.82997097  0.51218039     0.12400
C1314       C  0.56274705  0.79982038  0.50284643     0.62000
F1315       F  0.69674752  0.72099393  0.45467905    -0.23200
F1316       F  0.72496342  0.77006601  0.46456319    -0.20500
F1317       F  0.70089174  0.76098852  0.41269777    -0.20200
F1318       F  0.53597318  0.77815821  0.49359354    -0.20300
F1319       F  0.55352152  0.83363337  0.49598734    -0.20600
F1320       F  0.56772163  0.79612133  0.53797591    -0.23300
C1321       C  0.50728275  0.62211249  0.46153414    -0.06100
C1322       C  0.48502935  0.62727114  0.43342750    -0.00200
C1323       C  0.46231143  0.59965719  0.42443073    -0.08700
C1324       C  0.46707170  0.56678163  0.44022921    -0.06100
C1325       C  0.48954041  0.56185121  0.46838051    -0.00200
C1326       C  0.50737974  0.59140525  0.48099910    -0.08700
C1327       C  0.52391926  0.59397774  0.51624109     0.61700
H1328       H  0.52307619  0.64345269  0.47029782     0.12400
H1329       H  0.45201184  0.54504215  0.43155998     0.12400
C1330       C  0.43092988  0.60529332  0.40138451     0.62000
F1331       F  0.50434355  0.61620674  0.53626474    -0.23200
F1332       F  0.55719370  0.60717017  0.51349228    -0.20500
F1333       F  0.52568598  0.56283571  0.53298935    -0.20200
F1334       F  0.44103026  0.61221584  0.36798609    -0.20300
F1335       F  0.41148600  0.63269383  0.41374681    -0.20600
F1336       F  0.40960355  0.57653181  0.40077375    -0.23300
C1337       C  0.66471006  0.75670086  0.28758254    -0.06100
C1338       C  0.69088216  0.73409396  0.29900097    -0.00200
C1339       C  0.68306182  0.71175736  0.32726190    -0.08700
C1340       C  0.64892760  0.71148888  0.34107103    -0.06100
C1341       C  0.62279765  0.73447471  0.32980777    -0.00200
C1342       C  0.63180142  0.75895958  0.30366170    -0.08700
C1343       C  0.60812597  0.78891251  0.29384067     0.61700
H1344       H  0.67095931  0.77397903  0.26643580     0.12400
H1345       H  0.64296428  0.69355755  0.36181596     0.12400
C1346       C  0.70920060  0.68833833  0.34478371     0.62000
F1347       F  0.62462288  0.81235403  0.27224548    -0.23200
F1348       F  0.59805470  0.80650815  0.32316859    -0.20500
F1349       F  0.57915279  0.77696645  0.27685092    -0.20200
F1350       F  0.71035011  0.69592563  0.37953186    -0.20300
F1351       F  0.74224620  0.69191374  0.33176043    -0.20600
F1352       F  0.69899137  0.65436267  0.34112702    -0.23300
C1353       C  0.57111281  0.93497749  0.53846751    -0.06100
C1354       C  0.56702508  0.96400509  0.51662938    -0.00200
C1355       C  0.59779303  0.97810327  0.50152765    -0.08700
C1356       C  0.62923544  0.95956799  0.50376957    -0.06100
C1357       C  0.63309472  0.92974017  0.52423499    -0.00200
C1358       C  0.60406727  0.91932354  0.54452116    -0.08700
C1359       C  0.60831934  0.89440909  0.57455494     0.61700
H1360       H  0.54849855  0.92491883  0.55155716     0.12400
H1361       H  0.65161992  0.96953586  0.48993110     0.12400
C1362       C  0.60032403  0.01325503  0.48425314     0.62000
F1363       F  0.57953423  0.89473152  0.59603092    -0.23200
F1364       F  0.63684758  0.90381629  0.59397940    -0.20500
F1365       F  0.61289710  0.86118940  0.56288922    -0.20200
F1366       F  0.62189653  0.03408157  0.50351639    -0.20300
F1367       F  0.56880313  0.02955575  0.48126749    -0.20600
F1368       F  0.61458699  0.01002121  0.45164904    -0.23300
C1369       C  0.37143333  0.04345938  0.51628518    -0.06100
C1370       C  0.36197729  0.06143473  0.48618216    -0.00200
C1371       C  0.38547110  0.05829941  0.45813078    -0.08700
C1372       C  0.42087530  0.05074406  0.46458336    -0.06100
C1373       C  0.43102410  0.03261231  0.49448499    -0.00200
C1374       C  0.40391666  0.02612423  0.51933946    -0.08700
C1375       C  0.40554663  0.99868857  0.54721247     0.61700
H1376       H  0.35268531  0.04159295  0.53712341     0.12400
H1377       H  0.43923848  0.05407526  0.44381488     0.12400
C1378       C  0.37233793  0.04575509  0.42392620     0.62000
F1379       F  0.38064300  0.97393458  0.54053538    -0.23200
F1380       F  0.39838743  0.01291366  0.57903888    -0.20500
F1381       F  0.43716921  0.98240412  0.54861245    -0.20200
F1382       F  0.38671953  0.06434766  0.39695041    -0.20300
F1383       F  0.33676495  0.04654454  0.42283460    -0.20600
F1384       F  0.38140677  0.01170625  0.41998526    -0.23300
C1385       C  0.56062570  0.03779202  0.57473996    -0.06100
C1386       C  0.53679785  0.01096938  0.56887771    -0.00200
C1387       C  0.53006760  0.98728622  0.59644363    -0.08700
C1388       C  0.54906016  0.99002847  0.62735507    -0.06100
C1389       C  0.57399113  0.01586383  0.63276169    -0.00200
C1390       C  0.57838415  0.04140287  0.60656433    -0.08700
C1391       C  0.59974911  0.07358338  0.61289120     0.61700
H1392       H  0.56523382  0.05609477  0.55411258     0.12400
H1393       H  0.54403413  0.97166441  0.64795170     0.12400
C1394       C  0.50128170  0.96042524  0.59614556     0.62000
F1395       F  0.59504365  0.09802125  0.58712392    -0.23200
F1396       F  0.63463555  0.06527018  0.61413429    -0.20500
F1397       F  0.58974022  0.08840512  0.64375547    -0.20200
F1398       F  0.51201044  0.93060050  0.61288259    -0.20300
F1399       F  0.49140887  0.95099360  0.56349259    -0.20600
F1400       F  0.47268413  0.97355353  0.61337618    -0.23300
C1401       C  0.49493542  0.90739248  0.47980935    -0.06100
C1402       C  0.51486639  0.93480165  0.46635432    -0.00200
C1403       C  0.53713167  0.92722490  0.43793766    -0.08700
C1404       C  0.53853112  0.89312041  0.42461446    -0.06100
C1405       C  0.51692721  0.86627863  0.43674748    -0.00200
C1406       C  0.49367781  0.87422634  0.46440843    -0.08700
C1407       C  0.46583632  0.84900030  0.47661140     0.61700
H1408       H  0.47917467  0.91255166  0.50232102     0.12400
H1409       H  0.55616371  0.88773586  0.40345993     0.12400
C1410       C  0.56023398  0.95360644  0.42058706     0.62000
F1411       F  0.44268629  0.86423009  0.49934521    -0.23200
F1412       F  0.48085641  0.82118973  0.49328918    -0.20500
F1413       F  0.44681126  0.83745120  0.44876982    -0.20200
F1414       F  0.59456936  0.94553999  0.42736204    -0.20300
F1415       F  0.55335617  0.98673145  0.43126073    -0.20600
F1416       F  0.55531350  0.95279304  0.38540862    -0.23300
C1417       C  0.49438870  0.87491957  0.32265867    -0.06100
C1418       C  0.48101003  0.84394919  0.31010182    -0.00200
C1419       C  0.46168481  0.84381461  0.27925517    -0.08700
C1420       C  0.45018338  0.87565982  0.26652650    -0.06100
C1421       C  0.45843492  0.90650249  0.28335202    -0.00200
C1422       C  0.48393649  0.90650630  0.30914327    -0.08700
C1423       C  0.50020133  0.93833283  0.32401880     0.61700
H1424       H  0.51167414  0.87466521  0.34464346     0.12400
H1425       H  0.43243514  0.87616387  0.24490812     0.12400
C1426       C  0.45129359  0.81191819  0.25955933     0.62000
F1427       F  0.53588450  0.93607168  0.32035659    -0.23200
F1428       F  0.49213859  0.94003524  0.35866086    -0.20500
F1429       F  0.48935967  0.96803423  0.30760134    -0.20200
F1430       F  0.41547732  0.81037704  0.25789778    -0.20300
F1431       F  0.46379004  0.78179041  0.27411914    -0.20600
F1432       F  0.46426262  0.81424188  0.22633398    -0.23300
C1433       C  0.46147975  0.11322362  0.23041471    -0.06100
C1434       C  0.43249209  0.10075261  0.21236212    -0.00200
C1435       C  0.41661477  0.12171422  0.18698045    -0.08700
C1436       C  0.42599741  0.15582728  0.18511940    -0.06100
C1437       C  0.45908654  0.16519813  0.19579641    -0.00200
C1438       C  0.47675538  0.14478745  0.22064588    -0.08700
C1439       C  0.51147292  0.15534665  0.23556456     0.61700
H1440       H  0.47317868  0.09737012  0.25033220     0.12400
H1441       H  0.41210297  0.17217201  0.16722823     0.12400
C1442       C  0.39797607  0.10672362  0.15619597     0.62000
F1443       F  0.52149868  0.13366654  0.26227229    -0.23200
F1444       F  0.50917130  0.18854182  0.24836264    -0.20500
F1445       F  0.53686087  0.15412791  0.21028548    -0.20200
F1446       F  0.36349166  0.10008193  0.16358918    -0.20300
F1447       F  0.41508936  0.07702258  0.14682954    -0.20600
F1448       F  0.39918151  0.12844162  0.12783257    -0.23300
C1449       C  0.26507041  0.04440238  0.38425473    -0.06100
C1450       C  0.28128909  0.07536228  0.39404731    -0.00200
C1451       C  0.30806207  0.09039388  0.37320405    -0.08700
C1452       C  0.31480666  0.07477655  0.34233296    -0.06100
C1453       C  0.30469327  0.04077107  0.33657090    -0.00200
C1454       C  0.27778050  0.02561354  0.35614456    -0.08700
C1455       C  0.26352816  0.99007883  0.34815403     0.61700
H1456       H  0.24436359  0.03390222  0.40007989     0.12400
H1457       H  0.33354747  0.08658675  0.32526405     0.12400
C1458       C  0.33319749  0.11957006  0.38405260     0.62000
F1459       F  0.23573526  0.98166742  0.36931314    -0.23200
F1460       F  0.28910040  0.96534890  0.35279731    -0.20500
F1461       F  0.25214666  0.98928341  0.31440307    -0.20200
F1462       F  0.34779705  0.11275164  0.41544267    -0.20300
F1463       F  0.31662842  0.15078750  0.38672708    -0.20600
F1464       F  0.36067127  0.12376136  0.36122980    -0.23300
C1465       C  0.43551376  0.01808864  0.07002766    -0.06100
C1466       C  0.46965472  0.00584136  0.06737424    -0.00200
C1467       C  0.48565659  0.99310351  0.09807649    -0.08700
C1468       C  0.46806866  0.99606250  0.13005564    -0.06100
C1469       C  0.43326266  0.00698543  0.13259441    -0.00200
C1470       C  0.41603823  0.01627878  0.10099929    -0.08700
C1471       C  0.37681019  0.02116453  0.09814040     0.61700
H1472       H  0.42339414  0.02760051  0.04685855     0.12400
H1473       H  0.48124924  0.98745745  0.15322099     0.12400
C1474       C  0.52024284  0.97436111  0.09910337     0.62000
F1475       F  0.36536164  0.04924726  0.11656477    -0.23200
F1476       F  0.36050674  0.99199916  0.11025564    -0.20500
F1477       F  0.36616791  0.02599111  0.06442305    -0.20200
F1478       F  0.54347976  0.99307565  0.11857842    -0.20300
F1479       F  0.53434662  0.96905581  0.06696726    -0.20600
F1480       F  0.51574262  0.94229718  0.11442303    -0.23300
C1481       C  0.42856168  0.96601178  0.39231448    -0.06100
C1482       C  0.43975370  0.99132296  0.36828222    -0.00200
C1483       C  0.46593347  0.01475228  0.37924918    -0.08700
C1484       C  0.47959375  0.01143918  0.41311834    -0.06100
C1485       C  0.46568280  0.98849381  0.43797378    -0.00200
C1486       C  0.43920514  0.96556704  0.42718725    -0.08700
C1487       C  0.41941062  0.94157232  0.45112929     0.61700
H1488       H  0.40880816  0.94773744  0.38458664     0.12400
H1489       H  0.49985417  0.02877168  0.42143955     0.12400
C1490       C  0.47796246  0.04465869  0.35669465     0.62000
F1491       F  0.38420612  0.94833527  0.44868585    -0.23200
F1492       F  0.42854681  0.94516422  0.48521727    -0.20500
F1493       F  0.42515469  0.90786563  0.44113622    -0.20200
F1494       F  0.44985848  0.06540459  0.34844137    -0.20300
F1495       F  0.49311642  0.03252919  0.32682168    -0.20600
F1496       F  0.50225364  0.06501303  0.37318289    -0.23300
C1497       C  0.59431865  0.31717708  0.56477486    -0.06100
C1498       C  0.59186805  0.28191814  0.56126725    -0.00200
C1499       C  0.61828298  0.26365360  0.54349683    -0.08700
C1500       C  0.64729647  0.28240702  0.53074042    -0.06100
C1501       C  0.65140019  0.31775699  0.53826751    -0.00200
C1502       C  0.62452037  0.33487073  0.55759961    -0.08700
C1503       C  0.62589544  0.37161352  0.57156235     0.61700
H1504       H  0.57315456  0.33038258  0.57712695     0.12400
H1505       H  0.66747927  0.26936796  0.51626530     0.12400
C1506       C  0.61601736  0.22495521  0.53878929     0.62000
F1507       F  0.59837018  0.37962415  0.59275046    -0.23200
F1508       F  0.62437766  0.39430500  0.54453109    -0.20500
F1509       F  0.65534342  0.37669729  0.59105239    -0.20200
F1510       F  0.58625966  0.21707386  0.52060846    -0.20300
F1511       F  0.61484766  0.20870415  0.57059850    -0.20600
F1512       F  0.64433893  0.21218904  0.52078878    -0.23300
C1513       C  0.50779022  0.11664320  0.69110965    -0.06100
C1514       C  0.51747590  0.14876182  0.70410429    -0.00200
C1515       C  0.53706662  0.15072033  0.73463854    -0.08700
C1516       C  0.55305569  0.12052926  0.74624971    -0.06100
C1517       C  0.54725769  0.08906058  0.72972941    -0.00200
C1518       C  0.52087059  0.08619011  0.70498096    -0.08700
C1519       C  0.50609205  0.05263246  0.69198458     0.61700
H1520       H  0.49167256  0.11540024  0.66849402     0.12400
H1521       H  0.57197837  0.12196096  0.76685053     0.12400
C1522       C  0.54482507  0.18364554  0.75360996     0.62000
F1523       F  0.51892221  0.02425704  0.70950949    -0.23200
F1524       F  0.51318063  0.04958481  0.65727362    -0.20500
F1525       F  0.47039682  0.05301926  0.69633181    -0.20200
F1526       F  0.52300760  0.21028931  0.74400796    -0.20300
F1527       F  0.57891835  0.19278394  0.74728820    -0.20600
F1528       F  0.54047272  0.17832647  0.78866508    -0.23300
C1529       C  0.41799656  0.19615253  0.53753648    -0.06100
C1530       C  0.41129028  0.22818400  0.55150277    -0.00200
C1531       C  0.37882136  0.24432897  0.54722820    -0.08700
C1532       C  0.35105019  0.22362611  0.53745395    -0.06100
C1533       C  0.35650506  0.18870554  0.52967719    -0.00200
C1534       C  0.39098775  0.17571221  0.52610894    -0.08700
C1535       C  0.40020147  0.14124999  0.51034080     0.61700
H1536       H  0.44417848  0.18619142  0.53855272     0.12400
H1537       H  0.32500462  0.23425634  0.53673142     0.12400
C1538       C  0.37430540  0.28304641  0.55103368     0.62000
F1539       F  0.43569828  0.13598876  0.50821262    -0.23200
F1540       F  0.38780296  0.14027178  0.47711086    -0.20500
F1541       F  0.38671615  0.11489605  0.53021242    -0.20200
F1542       F  0.39574473  0.29964785  0.52759794    -0.20300
F1543       F  0.38301818  0.29356163  0.58363202    -0.20600
F1544       F  0.34040746  0.29331533  0.54472544    -0.23300
C1545       C  0.46596332  0.39025487  0.73651035    -0.06100
C1546       C  0.43082877  0.39365574  0.72705739    -0.00200
C1547       C  0.41257293  0.36393696  0.71470065    -0.08700
C1548       C  0.42928753  0.33234623  0.71768418    -0.06100
C1549       C  0.46515145  0.33108556  0.71745385    -0.00200
C1550       C  0.48403332  0.35942438  0.73005806    -0.08700
C1551       C  0.52271804  0.35698310  0.73596819     0.61700
H1552       H  0.47959535  0.41226112  0.74692770     0.12400
H1553       H  0.41533655  0.30942791  0.71092604     0.12400
C1554       C  0.37798623  0.36158108  0.69505431     0.62000
F1555       F  0.53553089  0.38612893  0.75197811    -0.23200
F1556       F  0.53961167  0.35336180  0.70484950    -0.20500
F1557       F  0.52980738  0.32865895  0.75666257    -0.20200
F1558       F  0.36312206  0.39192340  0.68381935    -0.20300
F1559       F  0.35402310  0.34403243  0.71509065    -0.20600
F1560       F  0.38381803  0.34288450  0.66530800    -0.23300
C1561       C  0.49834390  0.37003895  0.55298865    -0.06100
C1562       C  0.51374275  0.36907258  0.58588393    -0.00200
C1563       C  0.52619073  0.40103496  0.59918463    -0.08700
C1564       C  0.52692720  0.43077599  0.57728556    -0.06100
C1565       C  0.51085252  0.43155382  0.54463767    -0.00200
C1566       C  0.49416495  0.40073589  0.53368986    -0.08700
C1567       C  0.46911036  0.39847518  0.50367238     0.61700
H1568       H  0.48683651  0.34668453  0.54288707     0.12400
H1569       H  0.53816858  0.45442815  0.58658031     0.12400
C1570       C  0.53558228  0.40508046  0.63693081     0.62000
F1571       F  0.48131301  0.37471088  0.48007497    -0.23200
F1572       F  0.46383346  0.42952035  0.48706764    -0.20500
F1573       F  0.43719231  0.38724578  0.51576414    -0.20200
F1574       F  0.56205833  0.38283037  0.64618932    -0.20300
F1575       F  0.50654534  0.39816122  0.65686540    -0.20600
F1576       F  0.54640759  0.43830250  0.64428320    -0.23300
C1577       C  0.46357964  0.06932963  0.56867498    -0.06100
C1578       C  0.48604105  0.06458919  0.54042359    -0.00200
C1579       C  0.50414397  0.09438970  0.52804730    -0.08700
C1580       C  0.50302992  0.12546698  0.54711947    -0.06100
C1581       C  0.48043523  0.13031160  0.57526362    -0.00200
C1582       C  0.45828470  0.10210277  0.58435537    -0.08700
C1583       C  0.42732639  0.10669641  0.60831285     0.61700
H1584       H  0.44974291  0.04717288  0.57834533     0.12400
H1585       H  0.51914397  0.14687804  0.53875429     0.12400
C1586       C  0.52424724  0.09571198  0.49442247     0.62000
F1587       F  0.43793356  0.10759683  0.64214331    -0.23200
F1588       F  0.40386008  0.07990484  0.60502312    -0.20500
F1589       F  0.40993373  0.13701130  0.60039230    -0.20200
F1590       F  0.51568560  0.12559965  0.47658313    -0.20300
F1591       F  0.51669402  0.06842716  0.47312258    -0.20600
F1592       F  0.55947807  0.09619509  0.50121565    -0.23300
C1593       C  0.28108073  0.19547628  0.67683375    -0.06100
C1594       C  0.25363424  0.21939183  0.68116532    -0.00200
C1595       C  0.23204859  0.22591473  0.65185668    -0.08700
C1596       C  0.23623959  0.20613370  0.62183395    -0.06100
C1597       C  0.26333352  0.18230349  0.61735273    -0.00200
C1598       C  0.28695647  0.17761340  0.64521923    -0.08700
C1599       C  0.31891829  0.15497332  0.64140316     0.61700
H1600       H  0.29829129  0.19111357  0.69839766     0.12400
H1601       H  0.21819563  0.21038141  0.60081505     0.12400
C1602       C  0.20528285  0.25452195  0.64897814     0.62000
F1603       F  0.34168298  0.15918433  0.66859954    -0.23200
F1604       F  0.33642570  0.16350902  0.61135991    -0.20500
F1605       F  0.30933707  0.12065505  0.64036235    -0.20200
F1606       F  0.20732595  0.27740655  0.67548453    -0.20300
F1607       F  0.17222094  0.24072807  0.64789317    -0.20600
F1608       F  0.21072625  0.27310393  0.61886245    -0.23300
C1609       C  0.18200185  0.18095359  0.71284051    -0.06100
C1610       C  0.20782441  0.18840076  0.73708855    -0.00200
C1611       C  0.21932722  0.16099173  0.75885542    -0.08700
C1612       C  0.20181824  0.12872369  0.75823440    -0.06100
C1613       C  0.17489604  0.12157449  0.73474859    -0.00200
C1614       C  0.16609245  0.14800131  0.71044532    -0.08700
C1615       C  0.14079336  0.14160387  0.68125828     0.61700
H1616       H  0.17412305  0.20141269  0.69571413     0.12400
H1617       H  0.20969310  0.10839115  0.77581910     0.12400
C1618       C  0.25160762  0.16488192  0.78094003     0.62000
F1619       F  0.14122443  0.16812778  0.65717007    -0.23200
F1620       F  0.10744264  0.13909134  0.69414338    -0.20500
F1621       F  0.14952502  0.11142569  0.66435209    -0.20200
F1622       F  0.24797919  0.19189393  0.80361498    -0.20300
F1623       F  0.27994234  0.17122976  0.75990019    -0.20600
F1624       F  0.25846196  0.13533818  0.80003640    -0.23300
C1625       C  0.28048464  0.38610328  0.75402745    -0.06100
C1626       C  0.31083973  0.38773701  0.77398588    -0.00200
C1627       C  0.32269167  0.35611735  0.78932554    -0.08700
C1628       C  0.30558169  0.32447236  0.78149014    -0.06100
C1629       C  0.27612128  0.32286408  0.76011758    -0.00200
C1630       C  0.26286360  0.35488368  0.74707364    -0.08700
C1631       C  0.23025556  0.35871691  0.72560279     0.61700
H1632       H  0.27038755  0.40978700  0.74283166     0.12400
H1633       H  0.31521494  0.30041718  0.79215507     0.12400
C1634       C  0.35272010  0.35536020  0.81457457     0.62000
F1635       F  0.20659320  0.37903665  0.74314268    -0.23200
F1636       F  0.21467354  0.32774856  0.71820630    -0.20500
F1637       F  0.23832684  0.37504623  0.69479677    -0.20200
F1638       F  0.34720499  0.37969517  0.84000955    -0.20300
F1639       F  0.38358066  0.36222517  0.79756701    -0.20600
F1640       F  0.35599732  0.32345307  0.83057703    -0.23300
C1641       C  0.34818412  0.27820491  0.66442974    -0.06100
C1642       C  0.37496485  0.26248169  0.68356449    -0.00200
C1643       C  0.36614733  0.24912812  0.71683308    -0.08700
C1644       C  0.33165700  0.25309427  0.72937374    -0.06100
C1645       C  0.30525525  0.26954650  0.71030362    -0.00200
C1646       C  0.31423274  0.28306433  0.67730661    -0.08700
C1647       C  0.28999555  0.30347651  0.65441156     0.61700
H1648       H  0.35394227  0.28803706  0.63895914     0.12400
H1649       H  0.32451863  0.24221711  0.75417536     0.12400
C1650       C  0.39215063  0.22940559  0.73877431     0.62000
F1651       F  0.30599804  0.33374869  0.64386670    -0.23200
F1652       F  0.25995417  0.31253259  0.67102497    -0.20500
F1653       F  0.28209828  0.28422670  0.62560573    -0.20200
F1654       F  0.42027301  0.25016408  0.74624333    -0.20300
F1655       F  0.40324127  0.20036228  0.72125566    -0.20600
F1656       F  0.37784557  0.21855600  0.76978466    -0.23300
C1657       C  0.29721426  0.47296517  0.91157050    -0.06100
C1658       C  0.27483438  0.44633464  0.90253655    -0.00200
C1659       C  0.26181546  0.44379780  0.86845487    -0.08700
C1660       C  0.27675052  0.46440453  0.84311968    -0.06100
C1661       C  0.30354321  0.48653820  0.85155966    -0.00200
C1662       C  0.31100125  0.49428972  0.88614913    -0.08700
C1663       C  0.33433496  0.52354331  0.89656694     0.61700
H1664       H  0.30519337  0.47602593  0.93816279     0.12400
H1665       H  0.27075871  0.46024526  0.81617852     0.12400
C1666       C  0.23475298  0.41789292  0.85786003     0.62000
F1667       F  0.32095661  0.53973605  0.92543427    -0.23200
F1668       F  0.33660519  0.54801997  0.87060317    -0.20500
F1669       F  0.36688951  0.51063989  0.90422493    -0.20200
F1670       F  0.20639155  0.41991464  0.87970328    -0.20300
F1671       F  0.24945462  0.38545465  0.85883311    -0.20600
F1672       F  0.22297693  0.42377020  0.82463130    -0.23300
C1673       C  0.21563048  0.45169284  0.15850842    -0.06100
C1674       C  0.19609800  0.48032615  0.14943264    -0.00200
C1675       C  0.19444272  0.49170563  0.11476636    -0.08700
C1676       C  0.20831092  0.47026801  0.08930839    -0.06100
C1677       C  0.22405193  0.43889776  0.09820699    -0.00200
C1678       C  0.22968391  0.43042053  0.13337000    -0.08700
C1679       C  0.24891138  0.39852178  0.14485173     0.61700
H1680       H  0.21664980  0.44419394  0.18544637     0.12400
H1681       H  0.20550222  0.47734120  0.06236331     0.12400
C1682       C  0.17858123  0.52573908  0.10348536     0.62000
F1683       F  0.25418736  0.39804342  0.18011676    -0.23200
F1684       F  0.28105182  0.39762866  0.12894142    -0.20500
F1685       F  0.22952585  0.36985586  0.13667100    -0.20200
F1686       F  0.20255543  0.54378861  0.08381038    -0.20300
F1687       F  0.16951285  0.54631410  0.13101454    -0.20600
F1688       F  0.14947806  0.51967224  0.08365323    -0.23300
C1689       C  0.39635789  0.27104237  0.02277188    -0.06100
C1690       C  0.40418328  0.28778253  0.05388776    -0.00200
C1691       C  0.37765137  0.30694133  0.07063536    -0.08700
C1692       C  0.34406363  0.29999602  0.06169026    -0.06100
C1693       C  0.33753025  0.29287789  0.02750295    -0.00200
C1694       C  0.36335955  0.27589272  0.00772027    -0.08700
C1695       C  0.35598298  0.26339621  0.97171661     0.61700
H1696       H  0.41601428  0.25547785  0.01018517     0.12400
H1697       H  0.32403895  0.31118521  0.07733115     0.12400
C1698       C  0.38316310  0.33544198  0.09673605     0.62000
F1699       F  0.38363117  0.24474619  0.95842217    -0.23200
F1700       F  0.34992921  0.29131136  0.95025333    -0.20500
F1701       F  0.32702904  0.24230628  0.97228403    -0.20200
F1702       F  0.41533930  0.35000151  0.09251187    -0.20300
F1703       F  0.37961828  0.32257168  0.12984510    -0.20600
F1704       F  0.35912345  0.36172089  0.09196951    -0.23300
C1705       C  0.06852189  0.42912209  0.01964553    -0.06100
C1706       C  0.06533854  0.46331674  0.00801730    -0.00200
C1707       C  0.09666684  0.48111004  0.99928387    -0.08700
C1708       C  0.12931067  0.46473236  0.00455898    -0.06100
C1709       C  0.13244308  0.43087521  0.01766806    -0.00200
C1710       C  0.10091246  0.41336949  0.02693774    -0.08700
C1711       C  0.10039840  0.37836441  0.04515113     0.61700
H1712       H  0.04502969  0.41463771  0.02374441     0.12400
H1713       H  0.15274503  0.47837012  0.99707966     0.12400
C1714       C  0.09774336  0.51643538  0.98216280     0.62000
F1715       F  0.06737647  0.36925049  0.05612466    -0.23200
F1716       F  0.12146806  0.37929953  0.07395389    -0.20500
F1717       F  0.11159545  0.35278490  0.02326586    -0.20200
F1718       F  0.11330463  0.53962982  0.00419601    -0.20300
F1719       F  0.06539187  0.52889473  0.97311095    -0.20600
F1720       F  0.11743128  0.51450062  0.95231196    -0.23300
C1721       C  0.36908021  0.46192467  0.99004774    -0.06100
C1722       C  0.36801563  0.42668160  0.98098623    -0.00200
C1723       C  0.40079690  0.41027788  0.97444083    -0.08700
C1724       C  0.43229137  0.42942240  0.97766601    -0.06100
C1725       C  0.43325515  0.46435053  0.98767730    -0.00200
C1726       C  0.40054404  0.48077809  0.99393703    -0.08700
C1727       C  0.39654324  0.51785058  0.00596623     0.61700
H1728       H  0.34471529  0.47504894  0.99520256     0.12400
H1729       H  0.45685818  0.41683668  0.97276549     0.12400
C1730       C  0.40320137  0.37228373  0.96518576     0.62000
F1731       F  0.37846040  0.53651454  0.98135615    -0.23200
F1732       F  0.42765635  0.53435338  0.01189845    -0.20500
F1733       F  0.37772963  0.51817333  0.03641868    -0.20200
F1734       F  0.38575848  0.36635234  0.93469360    -0.20300
F1735       F  0.38888015  0.35253331  0.99135358    -0.20600
F1736       F  0.43722796  0.36145138  0.96074664    -0.23300
C1737       C  0.25399677  0.28186794  0.83608230    -0.06100
C1738       C  0.22846256  0.29206077  0.81226658    -0.00200
C1739       C  0.20190666  0.31490803  0.82397648    -0.08700
C1740       C  0.20269497  0.32709351  0.85824645    -0.06100
C1741       C  0.22895288  0.31803754  0.88174034    -0.00200
C1742       C  0.25522752  0.29465473  0.87017537    -0.08700
C1743       C  0.28582435  0.28451981  0.89270092     0.61700
H1744       H  0.27365984  0.26386770  0.82730533     0.12400
H1745       H  0.18298143  0.34521627  0.86618720     0.12400
C1746       C  0.17221064  0.32802190  0.80211764     0.62000
F1747       F  0.30924475  0.26341616  0.87562688    -0.23200
F1748       F  0.27423618  0.26667392  0.92147560    -0.20500
F1749       F  0.30338104  0.31394769  0.90258059    -0.20200
F1750       F  0.17435805  0.31729630  0.76856051    -0.20300
F1751       F  0.17206872  0.36374859  0.80223353    -0.20600
F1752       F  0.14114176  0.31646966  0.81593171    -0.23300
C1753       C  0.22542193  0.33748333  0.25189024    -0.06100
C1754       C  0.20724806  0.30989204  0.23707658    -0.00200
C1755       C  0.17351181  0.31695157  0.22360991    -0.08700
C1756       C  0.15921196  0.35079350  0.22659795    -0.06100
C1757       C  0.17718943  0.37799418  0.24259528    -0.00200
C1758       C  0.21167346  0.37128777  0.25408455    -0.08700
C1759       C  0.23437250  0.39932878  0.26935476     0.61700
H1760       H  0.25038316  0.33204517  0.26341127     0.12400
H1761       H  0.13311622  0.35565731  0.21729097     0.12400
C1762       C  0.15110493  0.29012820  0.20630609     0.62000
F1763       F  0.26921198  0.39040009  0.26793110    -0.23200
F1764       F  0.22537981  0.40422520  0.30346562    -0.20500
F1765       F  0.23050295  0.43003888  0.25134072    -0.20200
F1766       F  0.16651359  0.25797235  0.20501782    -0.20300
F1767       F  0.14417199  0.30075807  0.17292321    -0.20600
F1768       F  0.12005815  0.28703482  0.22411053    -0.23300
C1769       C  0.25341064  0.17274958  0.35808053    -0.06100
C1770       C  0.24723086  0.19539722  0.38604919    -0.00200
C1771       C  0.24901957  0.23153841  0.37716984    -0.08700
C1772       C  0.24466246  0.24108808  0.34165483    -0.06100
C1773       C  0.24868497  0.21648971  0.31490232    -0.00200
C1774       C  0.26505427  0.18611440  0.32616801    -0.08700
C1775       C  0.30422208  0.18369254  0.32117541     0.61700
H1776       H  0.25718129  0.14549823  0.36314891     0.12400
H1777       H  0.24204338  0.26808643  0.33479838     0.12400
C1778       C  0.26149279  0.25992661  0.40085779     0.62000
F1779       F  0.32086159  0.20024564  0.34795151    -0.23200
F1780       F  0.31601050  0.19930861  0.29178187    -0.20500
F1781       F  0.31418250  0.14964130  0.31970321    -0.20200
F1782       F  0.26538477  0.24938510  0.43449777    -0.20300
F1783       F  0.23892380  0.28776686  0.39984402    -0.20600
F1784       F  0.29364808  0.27102074  0.38926058    -0.23300
C1785       C  0.37563997  0.24496173  0.20862313    -0.06100
C1786       C  0.37897521  0.23635777  0.17360418    -0.00200
C1787       C  0.34785672  0.22806382  0.15539159    -0.08700
C1788       C  0.31542488  0.23066486  0.17245031    -0.06100
C1789       C  0.31208780  0.23734368  0.20783840    -0.00200
C1790       C  0.34313730  0.24646654  0.22585884    -0.08700
C1791       C  0.34416978  0.26189160  0.26177124     0.61700
H1792       H  0.39879287  0.25213882  0.22267952     0.12400
H1793       H  0.29195100  0.22730867  0.15781417     0.12400
C1794       C  0.34791938  0.21555805  0.11828736     0.62000
F1795       F  0.36497906  0.24170153  0.28279558    -0.23200
F1796       F  0.31179145  0.26525674  0.27681843    -0.20500
F1797       F  0.35890894  0.29442549  0.25992291    -0.20200
F1798       F  0.36147208  0.24036974  0.09685405    -0.20300
F1799       F  0.31489744  0.20803036  0.10646735    -0.20600
F1800       F  0.36760447  0.18590782  0.11561679    -0.23300
C1801       C  0.25769620  0.14664752  0.26397417    -0.06100
C1802       C  0.27460038  0.17351253  0.24550999    -0.00200
C1803       C  0.29942871  0.16095473  0.22167540    -0.08700
C1804       C  0.32072676  0.13316849  0.23258912    -0.06100
C1805       C  0.30645369  0.10626366  0.25283930    -0.00200
C1806       C  0.27196557  0.11242348  0.26604151    -0.08700
C1807       C  0.24888339  0.08522517  0.28220203     0.61700
H1808       H  0.23329327  0.15215553  0.27679233     0.12400
H1809       H  0.34452775  0.12817694  0.21856755     0.12400
C1810       C  0.28680878  0.15576208  0.18506048     0.62000
F1811       F  0.21685261  0.08583278  0.26613082    -0.23200
F1812       F  0.24397520  0.09249949  0.31670622    -0.20500
F1813       F  0.26211523  0.05236235  0.27892636    -0.20200
F1814       F  0.31434128  0.15799295  0.16225076    -0.20300
F1815       F  0.26127860  0.17931570  0.17615902    -0.20600
F1816       F  0.27234666  0.12319067  0.18198607    -0.23300
C1817       C  0.23323593  0.27254609  0.15571365    -0.06100
C1818       C  0.25590923  0.28449420  0.18142031    -0.00200
C1819       C  0.28200856  0.30852590  0.17139423    -0.08700
C1820       C  0.28457880  0.31888184  0.13647801    -0.06100
C1821       C  0.26067181  0.30854179  0.11101775    -0.00200
C1822       C  0.23443474  0.28454110  0.12109803    -0.08700
C1823       C  0.20709545  0.27196625  0.09601068     0.61700
H1824       H  0.21453631  0.25304173  0.16302362     0.12400
H1825       H  0.30489010  0.33689005  0.12943939     0.12400
C1826       C  0.30785450  0.32430399  0.19602875     0.62000
F1827       F  0.18417243  0.24896736  0.11131196    -0.23200
F1828       F  0.22296874  0.25522905  0.06876271    -0.20500
F1829       F  0.18791178  0.29971020  0.08384126    -0.20200
F1830       F  0.34084261  0.31273217  0.18807560    -0.20300
F1831       F  0.30061369  0.31647989  0.22989009    -0.20600
F1832       F  0.30757177  0.35981779  0.19272958    -0.23300
C1833       C  0.86391287  0.27005840  0.42926929    -0.06100
C1834       C  0.89531486  0.26724152  0.44706764    -0.00200
C1835       C  0.89550937  0.27135562  0.48328918    -0.08700
C1836       C  0.86439830  0.28254479  0.49941279    -0.06100
C1837       C  0.83409824  0.28845278  0.48001153    -0.00200
C1838       C  0.83304875  0.27751349  0.44581282    -0.08700
C1839       C  0.80050759  0.27676090  0.42473623     0.61700
H1840       H  0.86328043  0.26723436  0.40150162     0.12400
H1841       H  0.86445067  0.29003306  0.52625255     0.12400
C1842       C  0.92850671  0.26683129  0.50396622     0.62000
F1843       F  0.79618440  0.24421418  0.41110662    -0.23200
F1844       F  0.80419033  0.30025812  0.39810896    -0.20500
F1845       F  0.77137352  0.28425938  0.44424136    -0.20200
F1846       F  0.95408093  0.28843824  0.49117166    -0.20300
F1847       F  0.93968563  0.23293919  0.50182995    -0.20600
F1848       F  0.92339201  0.27457019  0.53839050    -0.23300
C1849       C  0.11918845  0.18822729  0.49406125    -0.06100
C1850       C  0.15050275  0.20252819  0.48224540    -0.00200
C1851       C  0.14996772  0.23121108  0.46000122    -0.08700
C1852       C  0.11922965  0.23857252  0.44298233    -0.06100
C1853       C  0.08913492  0.21981971  0.45006363    -0.00200
C1854       C  0.08765318  0.19759678  0.47900952    -0.08700
C1855       C  0.05484135  0.18218312  0.49414220     0.61700
H1856       H  0.11963596  0.16761564  0.51310776     0.12400
H1857       H  0.11923458  0.25809037  0.42283965     0.12400
C1858       C  0.18111405  0.25257300  0.45074438     0.62000
F1859       F  0.05396846  0.18844701  0.52919823    -0.23200
F1860       F  0.05490282  0.14689145  0.48902295    -0.20500
F1861       F  0.02507076  0.19620200  0.48025484    -0.20200
F1862       F  0.18873569  0.24679019  0.41655765    -0.20300
F1863       F  0.20951822  0.24481655  0.47094125    -0.20600
F1864       F  0.17336654  0.28720299  0.45512114    -0.23300
C1865       C  0.01643295  0.35774591  0.28035664    -0.06100
C1866       C  0.02568256  0.35285219  0.31525904    -0.00200
C1867       C  0.04466243  0.37928277  0.33264869    -0.08700
C1868       C  0.05552803  0.40721251  0.31353235    -0.06100
C1869       C  0.04808840  0.41172795  0.27875060    -0.00200
C1870       C  0.02738838  0.38722411  0.26161291    -0.08700
C1871       C  0.01842403  0.39142005  0.22383977     0.61700
H1872       H  0.00141181  0.33798564  0.26764199     0.12400
H1873       H  0.07239024  0.42539061  0.32572088     0.12400
C1874       C  0.05260140  0.38077349  0.37144392     0.62000
F1875       F  0.99748515  0.36487519  0.21234906    -0.23200
F1876       F  0.04849556  0.39160873  0.20421110    -0.20500
F1877       F  0.00079902  0.42223110  0.21893592    -0.20200
F1878       F  0.07225238  0.35319458  0.38286489    -0.20300
F1879       F  0.02156488  0.38214892  0.38874809    -0.20600
F1880       F  0.07122097  0.40965926  0.38093855    -0.23300
C1881       C  0.00773201  0.36499922  0.46062079    -0.06100
C1882       C  0.97927204  0.35836746  0.43915153    -0.00200
C1883       C  0.95429836  0.38492012  0.43470997    -0.08700
C1884       C  0.96163659  0.41838083  0.44710068    -0.06100
C1885       C  0.99298912  0.42673758  0.46394421    -0.00200
C1886       C  0.01408918  0.39807069  0.47451119    -0.08700
C1887       C  0.04134656  0.39910642  0.50267033     0.61700
H1888       H  0.02569936  0.34413528  0.46632557     0.12400
H1889       H  0.94233117  0.43829669  0.44363376     0.12400
C1890       C  0.91957625  0.37797826  0.41772562     0.62000
F1891       F  0.03112272  0.37736807  0.52922298    -0.23200
F1892       F  0.04619699  0.43150672  0.51634719    -0.20500
F1893       F  0.07275101  0.38716127  0.48992133    -0.20200
F1894       F  0.90640688  0.34671811  0.42915037    -0.20300
F1895       F  0.92360579  0.37715281  0.38234108    -0.20600
F1896       F  0.89540312  0.40329017  0.42566437    -0.23300
C1897       C  0.81102827  0.22138149  0.32665279    -0.06100
C1898       C  0.80495360  0.23715396  0.29472545    -0.00200
C1899       C  0.83271379  0.25723826  0.28067034    -0.08700
C1900       C  0.86638170  0.25487772  0.29531456    -0.06100
C1901       C  0.87363714  0.23491997  0.32490814    -0.00200
C1902       C  0.84452267  0.21814270  0.34146038    -0.08700
C1903       C  0.84755102  0.19330515  0.37216079     0.61700
H1904       H  0.78896171  0.21078600  0.33986887     0.12400
H1905       H  0.88717564  0.26991299  0.28381163     0.12400
C1906       C  0.82819007  0.28437416  0.25269711     0.62000
F1907       F  0.81551378  0.18236164  0.38426204    -0.23200
F1908       F  0.86422425  0.20699664  0.40004071    -0.20500
F1909       F  0.86541006  0.16472419  0.36166357    -0.20200
F1910       F  0.83624877  0.31639483  0.26613929    -0.20300
F1911       F  0.79488377  0.28625503  0.24009704    -0.20600
F1912       F  0.85061166  0.27758574  0.22564498    -0.23300
C1913       C  0.17621066  0.28366171  0.30842685    -0.06100
C1914       C  0.18359608  0.25474207  0.28774944    -0.00200
C1915       C  0.15719752  0.22896834  0.28527766    -0.08700
C1916       C  0.12555521  0.23293217  0.30381992    -0.06100
C1917       C  0.11778053  0.26209203  0.32404254    -0.00200
C1918       C  0.14402214  0.28797266  0.32620892    -0.08700
C1919       C  0.13738074  0.32129831  0.34506101     0.61700
H1920       H  0.19596613  0.30337244  0.31019917     0.12400
H1921       H  0.10615811  0.21276095  0.30199027     0.12400
C1922       C  0.15995407  0.19684681  0.26303536     0.62000
F1923       F  0.16541622  0.34359596  0.34317602    -0.23200
F1924       F  0.13075825  0.31458992  0.37946115    -0.20500
F1925       F  0.10928050  0.33756318  0.33005066    -0.20200
F1926       F  0.16211236  0.16803647  0.28417123    -0.20300
F1927       F  0.18809436  0.19688620  0.24095401    -0.20600
F1928       F  0.13045983  0.19412794  0.24294031    -0.23300
C1929       C  0.81965250  0.49525778  0.62176497    -0.06100
C1930       C  0.80729660  0.48260422  0.65327937    -0.00200
C1931       C  0.77647320  0.46310950  0.65491590    -0.08700
C1932       C  0.76369490  0.45057513  0.62398536    -0.06100
C1933       C  0.78077435  0.45770911  0.59281938    -0.00200
C1934       C  0.80646074  0.48328692  0.59092744    -0.08700
C1935       C  0.82226820  0.49728737  0.55808466     0.61700
H1936       H  0.84198197  0.51213473  0.62116811     0.12400
H1937       H  0.74192576  0.43289377  0.62457593     0.12400
C1938       C  0.75696663  0.45349426  0.68751925     0.62000
F1939       F  0.81803099  0.53277281  0.55720228    -0.23200
F1940       F  0.80720598  0.48385639  0.52886208    -0.20500
F1941       F  0.85739237  0.48991266  0.55798455    -0.20200
F1942       F  0.77106935  0.46789198  0.71666943    -0.20300
F1943       F  0.75656211  0.41795202  0.69120401    -0.20600
F1944       F  0.72304142  0.46508666  0.68485351    -0.23300
C1945       C  0.82916537  0.57444831  0.85176399    -0.06100
C1946       C  0.81822448  0.54134005  0.84346933    -0.00200
C1947       C  0.79366283  0.52409875  0.86443078    -0.08700
C1948       C  0.78074365  0.54146450  0.89359831    -0.06100
C1949       C  0.79261309  0.57466913  0.90228499    -0.00200
C1950       C  0.81801559  0.59161024  0.88081614    -0.08700
C1951       C  0.83313926  0.62817275  0.88583100     0.61700
H1952       H  0.84826034  0.58650273  0.83529821     0.12400
H1953       H  0.76162302  0.52905925  0.90999743     0.12400
C1954       C  0.78256772  0.48734863  0.85700120     0.62000
F1955       F  0.86054728  0.63535824  0.86381784    -0.23200
F1956       F  0.84625558  0.63301110  0.91833254    -0.20500
F1957       F  0.80771923  0.65244188  0.87965783    -0.20200
F1958       F  0.81129371  0.46578808  0.85762876    -0.20300
F1959       F  0.76715969  0.48587492  0.82490295    -0.20600
F1960       F  0.75888157  0.47525681  0.88109863    -0.23300
C1961       C  0.96604025  0.48892567  0.62546994    -0.06100
C1962       C  0.94030111  0.51428295  0.63024517    -0.00200
C1963       C  0.93365274  0.53754523  0.60240455    -0.08700
C1964       C  0.94892741  0.53107512  0.56967158    -0.06100
C1965       C  0.97298074  0.50412248  0.56450824    -0.00200
C1966       C  0.98344014  0.48429329  0.59373160    -0.08700
C1967       C  0.01323834  0.45846243  0.59210783     0.61700
H1968       H  0.97223466  0.47202913  0.64691121     0.12400
H1969       H  0.94279935  0.54767418  0.54796777     0.12400
C1970       C  0.91262377  0.57036425  0.60740687     0.62000
F1971       F  0.02259743  0.44671701  0.62455971    -0.23200
F1972       F  0.04230060  0.47329143  0.57726915    -0.20500
F1973       F  0.00363801  0.43030915  0.57306004    -0.20200
F1974       F  0.92143911  0.58581606  0.63822115    -0.20300
F1975       F  0.87758460  0.56293107  0.60750539    -0.20600
F1976       F  0.91905521  0.59407519  0.58129491    -0.23300
C1977       C  0.92126791  0.47046906  0.89051235    -0.06100
C1978       C  0.94002854  0.48499095  0.86256630    -0.00200
C1979       C  0.97162166  0.50251146  0.87012068    -0.08700
C1980       C  0.98461476  0.50070117  0.90406459    -0.06100
C1981       C  0.96434641  0.48920954  0.93213014    -0.00200
C1982       C  0.93176450  0.47389216  0.92511607    -0.08700
C1983       C  0.90639090  0.46148113  0.95238980     0.61700
H1984       H  0.89661549  0.45795960  0.88566201     0.12400
H1985       H  0.00970532  0.51188693  0.90977553     0.12400
C1986       C  0.98898622  0.52765974  0.84503484     0.62000
F1987       F  0.89899216  0.42700048  0.94700642    -0.23200
F1988       F  0.87591073  0.48032778  0.94963126    -0.20500
F1989       F  0.91869154  0.46498199  0.98545519    -0.20200
F1990       F  0.01600047  0.54544641  0.86028932    -0.20300
F1991       F  0.96499725  0.55192148  0.83393413    -0.20600
F1992       F  0.00257570  0.51078168  0.81697833    -0.23300
C1993       C  0.83026129  0.64236152  0.78323726    -0.06100
C1994       C  0.83422618  0.62112876  0.75422674    -0.00200
C1995       C  0.81551638  0.63160893  0.72399912    -0.08700
C1996       C  0.79485919  0.66232484  0.72544526    -0.06100
C1997       C  0.78926744  0.68030915  0.75677910    -0.00200
C1998       C  0.79850803  0.66039994  0.78634112    -0.08700
C1999       C  0.77051754  0.63529165  0.79946350     0.61700
H2000       H  0.84321800  0.63472709  0.80641789     0.12400
H2001       H  0.78151258  0.67131512  0.70272640     0.12400
C2002       C  0.81815580  0.61184127  0.69038049     0.62000
F2003       F  0.78057963  0.60087147  0.79793275    -0.23200
F2004       F  0.74103688  0.63768585  0.77954646    -0.20500
F2005       F  0.76297501  0.64167876  0.83330332    -0.20200
F2006       F  0.80358401  0.57945031  0.69399117    -0.20300
F2007       F  0.85263538  0.60857894  0.68084810    -0.20600
F2008       F  0.80080672  0.62857366  0.66389822    -0.23300
C2009       C  0.72248351  0.16472062  0.74154662    -0.06100
C2010       C  0.70915830  0.19115930  0.76259090    -0.00200
C2011       C  0.67862908  0.18379900  0.78199491    -0.08700
C2012       C  0.66313848  0.15065492  0.77965570    -0.06100
C2013       C  0.67788214  0.12340943  0.76048455    -0.00200
C2014       C  0.70820417  0.13101412  0.74050998    -0.08700
C2015       C  0.72544319  0.10428651  0.71734060     0.61700
H2016       H  0.74460193  0.17079499  0.72548756     0.12400
H2017       H  0.63914460  0.14597808  0.79355998     0.12400
C2018       C  0.66095147  0.20957817  0.80552841     0.62000
F2019       F  0.75251995  0.11813766  0.69820503    -0.23200
F2020       F  0.70147377  0.09127413  0.69432794    -0.20500
F2021       F  0.73898225  0.07771081  0.73719341    -0.20200
F2022       F  0.67771280  0.24096269  0.80686245    -0.20300
F2023       F  0.65966874  0.19614415  0.83857584    -0.20600
F2024       F  0.62738529  0.21529137  0.79430338    -0.23300
C2025       C  0.77973396  0.17364266  0.85764737    -0.06100
C2026       C  0.76501935  0.19010163  0.88666555    -0.00200
C2027       C  0.74644737  0.22153082  0.88050600    -0.08700
C2028       C  0.74453136  0.23508393  0.84638598    -0.06100
C2029       C  0.75895251  0.21841050  0.81744693    -0.00200
C2030       C  0.77692268  0.18672000  0.82353419    -0.08700
C2031       C  0.79375794  0.16494795  0.79581375     0.61700
H2032       H  0.79341676  0.14941740  0.86142216     0.12400
H2033       H  0.73061226  0.25892984  0.84177407     0.12400
C2034       C  0.72754988  0.24063599  0.90916129     0.62000
F2035       F  0.77746659  0.13315078  0.79468759    -0.23200
F2036       F  0.82838880  0.15980276  0.80380302    -0.20500
F2037       F  0.79210533  0.17976457  0.76360534    -0.20200
F2038       F  0.75056758  0.24996468  0.93466031    -0.20300
F2039       F  0.70193674  0.21974983  0.92307178    -0.20600
F2040       F  0.71175059  0.27059219  0.89733444    -0.23300
C2041       C  0.64447865  0.21851857  0.67071479    -0.06100
C2042       C  0.61500396  0.23416418  0.68589637    -0.00200
C2043       C  0.62024390  0.25548995  0.71521884    -0.08700
C2044       C  0.65338021  0.25690617  0.73000737    -0.06100
C2045       C  0.68277985  0.24281828  0.71419610    -0.00200
C2046       C  0.67845073  0.22334486  0.68365984    -0.08700
C2047       C  0.70815225  0.20721052  0.66361508     0.61700
H2048       H  0.64119207  0.20309339  0.64774018     0.12400
H2049       H  0.65685343  0.27050204  0.75395521     0.12400
C2050       C  0.59254341  0.27966849  0.72931519     0.62000
F2051       F  0.70337398  0.17184766  0.66219265    -0.23200
F2052       F  0.74028564  0.21352498  0.67790372    -0.20500
F2053       F  0.70827418  0.22032349  0.63038071    -0.20200
F2054       F  0.56595457  0.26126720  0.74446510    -0.20300
F2055       F  0.57974224  0.29973184  0.70270600    -0.20600
F2056       F  0.60553348  0.30189250  0.75393449    -0.23300
C2057       C  0.75719298  0.29094034  0.66685870    -0.06100
C2058       C  0.73167184  0.29964020  0.69129220    -0.00200
C2059       C  0.70714086  0.32583484  0.68181599    -0.08700
C2060       C  0.70952435  0.34183624  0.64886855    -0.06100
C2061       C  0.73520708  0.33305253  0.62461772    -0.00200
C2062       C  0.75991351  0.30723081  0.63425195    -0.08700
C2063       C  0.79013873  0.29734891  0.61095817     0.61700
H2064       H  0.77579452  0.27115022  0.67397599     0.12400
H2065       H  0.69090159  0.36170918  0.64210750     0.12400
C2066       C  0.67754755  0.33816307  0.70428362     0.62000
F2067       F  0.81389463  0.27622737  0.62763328    -0.23200
F2068       F  0.80761204  0.32671706  0.60021423    -0.20500
F2069       F  0.77795403  0.27960391  0.58268731    -0.20200
F2070       F  0.67847008  0.37377462  0.70670346    -0.20300
F2071       F  0.67872521  0.32471316  0.73700277    -0.20600
F2072       F  0.64643752  0.32887129  0.68931100    -0.23300
C2073       C  0.80878915  0.32747740  0.72142928    -0.06100
C2074       C  0.78005639  0.32543765  0.74387885    -0.00200
C2075       C  0.76819467  0.35677622  0.75935499    -0.08700
C2076       C  0.78792283  0.38729827  0.75495582    -0.06100
C2077       C  0.81762528  0.38899414  0.73371236    -0.00200
C2078       C  0.82615244  0.35903151  0.71421252    -0.08700
C2079       C  0.85056345  0.36082662  0.68339281     0.61700
H2080       H  0.81702115  0.30408237  0.70860896     0.12400
H2081       H  0.77980003  0.41029473  0.76862794     0.12400
C2082       C  0.73544906  0.36027640  0.78117886     0.62000
F2083       F  0.84867465  0.33128660  0.66362288    -0.23200
F2084       F  0.88457832  0.36446357  0.69369084    -0.20500
F2085       F  0.84137007  0.38855806  0.66264877    -0.20200
F2086       F  0.74347020  0.37433331  0.81285704    -0.20300
F2087       F  0.71871450  0.32929060  0.78694451    -0.20600
F2088       F  0.71273350  0.38265083  0.76493039    -0.23300
C2089       C  0.51191182  0.88219695  0.81143656    -0.06100
C2090       C  0.52310595  0.85004937  0.79938399    -0.00200
C2091       C  0.54539478  0.84800574  0.77064848    -0.08700
C2092       C  0.56264897  0.87788896  0.76069947    -0.06100
C2093       C  0.55502974  0.90943535  0.77630358    -0.00200
C2094       C  0.52621496  0.91261165  0.79856149    -0.08700
C2095       C  0.51006271  0.94629042  0.81001087     0.61700
H2096       H  0.49293174  0.88349236  0.83204855     0.12400
H2097       H  0.58291426  0.87637451  0.74124576     0.12400
C2098       C  0.55266056  0.81568190  0.75040910     0.62000
F2099       F  0.47472436  0.94547477  0.80361926    -0.23200
F2100       F  0.52345114  0.97456863  0.79279765    -0.20500
F2101       F  0.51492615  0.95003629  0.84499107    -0.20200
F2102       F  0.53113026  0.78882924  0.75982686    -0.20300
F2103       F  0.58692116  0.80614228  0.75502961    -0.20600
F2104       F  0.54727221  0.82233900  0.71576053    -0.23300
C2105       C  0.60357438  0.73350475  0.96690095    -0.06100
C2106       C  0.59588439  0.71708681  0.93542074    -0.00200
C2107       C  0.62110972  0.69518245  0.92051879    -0.08700
C2108       C  0.65452064  0.69752488  0.93245386    -0.06100
C2109       C  0.66036217  0.70611959  0.96657033    -0.00200
C2110       C  0.63500280  0.72580098  0.98431082    -0.08700
C2111       C  0.64094686  0.73762052  0.02087804     0.61700
H2112       H  0.58449144  0.75058201  0.97837970     0.12400
H2113       H  0.67408807  0.68258556  0.91927996     0.12400
C2114       C  0.61197511  0.66382568  0.89886984     0.62000
F2115       F  0.61377089  0.75787715  0.03266472    -0.23200
F2116       F  0.67116864  0.75682207  0.02226853    -0.20500
F2117       F  0.64395948  0.70929683  0.04253470    -0.20200
F2118       F  0.60900468  0.67239374  0.86447120    -0.20300
F2119       F  0.58124352  0.65016403  0.91065913    -0.20600
F2120       F  0.63671665  0.63791054  0.90187804    -0.23300
C2121       C  0.48886482  0.62606507  0.80057035    -0.06100
C2122       C  0.47304462  0.65720024  0.79082089    -0.00200
C2123       C  0.45182548  0.65865324  0.76134021    -0.08700
C2124       C  0.44065927  0.62742949  0.74763394    -0.06100
C2125       C  0.45166773  0.59596465  0.76182122    -0.00200
C2126       C  0.47911859  0.59504665  0.78555586    -0.08700
C2127       C  0.49670032  0.56243276  0.79797570     0.61700
H2128       H  0.50726658  0.62556461  0.82162903     0.12400
H2129       H  0.42028093  0.62758928  0.72837542     0.12400
C2130       C  0.43597651  0.69142864  0.74733693     0.62000
F2131       F  0.53230599  0.56596204  0.79463107    -0.23200
F2132       F  0.48686464  0.53360051  0.77970665    -0.20500
F2133       F  0.48875124  0.55761819  0.83225343    -0.20200
F2134       F  0.45569713  0.71998399  0.75526996    -0.20300
F2135       F  0.40302931  0.69497548  0.76094185    -0.20600
F2136       F  0.43362281  0.68973278  0.71179328    -0.23300
C2137       C  0.52604504  0.60151970  0.90603138    -0.06100
C2138       C  0.51077231  0.63107951  0.92135688    -0.00200
C2139       C  0.49698018  0.62680297  0.95548734    -0.08700
C2140       C  0.49776823  0.59375336  0.97155554    -0.06100
C2141       C  0.51289505  0.56453421  0.95623317    -0.00200
C2142       C  0.52840895  0.56891526  0.92317208    -0.08700
C2143       C  0.54879466  0.54060951  0.90533447     0.61700
H2144       H  0.53715618  0.60400736  0.88044156     0.12400
H2145       H  0.48586175  0.59015444  0.99662884     0.12400
C2146       C  0.48084793  0.65657609  0.97540518     0.62000
F2147       F  0.58243927  0.55181666  0.89967920    -0.23200
F2148       F  0.53384075  0.53321525  0.87402289    -0.20500
F2149       F  0.55029929  0.51042526  0.92425699    -0.20200
F2150       F  0.45185443  0.66882836  0.95820333    -0.20300
F2151       F  0.50492879  0.68276389  0.97912190    -0.20600
F2152       F  0.47031818  0.64674379  0.00816695    -0.23300
C2153       C  0.65834543  0.74580152  0.76919159    -0.06100
C2154       C  0.68642620  0.76073645  0.78676305    -0.00200
C2155       C  0.67906958  0.77825864  0.81804893    -0.08700
C2156       C  0.64426993  0.78000078  0.83010277    -0.06100
C2157       C  0.61635670  0.76326243  0.81353825    -0.00200
C2158       C  0.62426522  0.74425490  0.78306798    -0.08700
C2159       C  0.59872836  0.71900527  0.76710835     0.61700
H2160       H  0.66403468  0.73262628  0.74534862     0.12400
H2161       H  0.63915777  0.79388822  0.85375848     0.12400
C2162       C  0.70628195  0.79541221  0.84021295     0.62000
F2163       F  0.61400282  0.69949176  0.74135152    -0.23200
F2164       F  0.57105220  0.73637536  0.75272178    -0.20500
F2165       F  0.58671289  0.69624794  0.79203587    -0.20200
F2166       F  0.69769810  0.82983419  0.84439852    -0.20300
F2167       F  0.73929060  0.79368513  0.82644607    -0.20600
F2168       F  0.70672582  0.77958563  0.87226228    -0.23300
C2169       C  0.51056558  0.87289308  0.95306158    -0.06100
C2170       C  0.48457039  0.86771304  0.92820861    -0.00200
C2171       C  0.46127422  0.89590506  0.92192806    -0.08700
C2172       C  0.46717327  0.92850758  0.93795294    -0.06100
C2173       C  0.49425991  0.93397022  0.96167087    -0.00200
C2174       C  0.51558550  0.90484601  0.97009384    -0.08700
C2175       C  0.54354180  0.90498764  0.99758336     0.61700
H2176       H  0.52781197  0.85156127  0.95918571     0.12400
H2177       H  0.45010301  0.95007914  0.93245719     0.12400
C2178       C  0.42880236  0.89122632  0.90034670     0.62000
F2179       F  0.57441439  0.89287876  0.98377337    -0.23200
F2180       F  0.53357949  0.88325073  0.02423295    -0.20500
F2181       F  0.54977533  0.93717364  0.01105252    -0.20200
F2182       F  0.41092846  0.86228775  0.91162340    -0.20300
F2183       F  0.43748035  0.88744148  0.86603516    -0.20600
F2184       F  0.40659094  0.91929178  0.90295896    -0.23300
C2185       C  0.16309210  0.85448911  0.78197777    -0.06100
C2186       C  0.17699870  0.87975103  0.75995018    -0.00200
C2187       C  0.20395137  0.86903539  0.73694798    -0.08700
C2188       C  0.21538437  0.83386484  0.73719082    -0.06100
C2189       C  0.20091923  0.80827941  0.75902073    -0.00200
C2190       C  0.17401841  0.81958420  0.78198610    -0.08700
C2191       C  0.15445251  0.79685676  0.80676462     0.61700
H2192       H  0.14226177  0.86190901  0.79928385     0.12400
H2193       H  0.23590553  0.82583796  0.71981714     0.12400
C2194       C  0.21986403  0.89408001  0.71119261     0.62000
F2195       F  0.16028329  0.80773692  0.84013111    -0.23200
F2196       F  0.16425780  0.76325898  0.80408036    -0.20500
F2197       F  0.11922399  0.79905483  0.80000572    -0.20200
F2198       F  0.23598695  0.92073319  0.72843958    -0.20300
F2199       F  0.19417723  0.90733327  0.69001133    -0.20600
F2200       F  0.24452101  0.87830423  0.69048693    -0.23300
C2201       C  0.32961417  0.64528753  0.71450705    -0.06100
C2202       C  0.31748667  0.61662864  0.73381194    -0.00200
C2203       C  0.28723447  0.62149203  0.75483029    -0.08700
C2204       C  0.26865703  0.65273150  0.75208798    -0.06100
C2205       C  0.28138924  0.68156654  0.73424200    -0.00200
C2206       C  0.31273472  0.67796587  0.71521478    -0.08700
C2207       C  0.32949725  0.70738681  0.69532384     0.61700
H2208       H  0.35311136  0.64249200  0.69929449     0.12400
H2209       H  0.24441793  0.65557748  0.76586391     0.12400
C2210       C  0.27515827  0.59545966  0.78213074     0.62000
F2211       F  0.36236897  0.71318202  0.70810561    -0.23200
F2212       F  0.31118120  0.73798734  0.69741909    -0.20500
F2213       F  0.33223956  0.69847940  0.66097764    -0.20200
F2214       F  0.30237311  0.58730461  0.80392635    -0.20300
F2215       F  0.26299425  0.56576301  0.76705437    -0.20600
F2216       F  0.24848529  0.60839330  0.80238419    -0.23300
C2217       C  0.32973457  0.75948526  0.77290528    -0.06100
C2218       C  0.30553735  0.73490764  0.78521024    -0.00200
C2219       C  0.31736196  0.71234969  0.81203224    -0.08700
C2220       C  0.35172911  0.71518029  0.82482102    -0.06100
C2221       C  0.37585160  0.73966614  0.81269638    -0.00200
C2222       C  0.36427936  0.76250413  0.78592977    -0.08700
C2223       C  0.38764233  0.79057012  0.77123879     0.61700
H2224       H  0.32101963  0.77686165  0.75275089     0.12400
H2225       H  0.35980046  0.69762297  0.84516542     0.12400
C2226       C  0.29576261  0.68471892  0.82912212     0.62000
F2227       F  0.41568062  0.77580436  0.75457683    -0.23200
F2228       F  0.39932408  0.81159282  0.79742155    -0.20500
F2229       F  0.37045091  0.81128562  0.74756024    -0.20200
F2230       F  0.31161924  0.65307004  0.82439362    -0.20300
F2231       F  0.26264735  0.68316835  0.81658736    -0.20600
F2232       F  0.29388192  0.69097425  0.86402190    -0.23300
C2233       C  0.22604815  0.52030784  0.39159406    -0.06100
C2234       C  0.23681087  0.55458033  0.38746125    -0.00200
C2235       C  0.23930377  0.56854421  0.35349071    -0.08700
C2236       C  0.22620675  0.54987634  0.32588884    -0.06100
C2237       C  0.20942740  0.51882657  0.33120560    -0.00200
C2238       C  0.21229347  0.50194609  0.36360114    -0.08700
C2239       C  0.20158260  0.46494368  0.36972279     0.61700
H2240       H  0.22605111  0.50867012  0.41708130     0.12400
H2241       H  0.22546617  0.56116603  0.30034821     0.12400
C2242       C  0.25544012  0.60298806  0.34577472     0.62000
F2243       F  0.23057962  0.44580144  0.37873316    -0.23200
F2244       F  0.18698795  0.45023048  0.34097461    -0.20500
F2245       F  0.17793456  0.46335060  0.39641289    -0.20200
F2246       F  0.28828418  0.60319071  0.35987417    -0.20300
F2247       F  0.23491789  0.62896346  0.35902255    -0.20600
F2248       F  0.25858805  0.60906165  0.31073350    -0.23300
C2249       C  0.26220327  0.56093035  0.62581594    -0.06100
C2250       C  0.27907798  0.55165052  0.59518453    -0.00200
C2251       C  0.29956890  0.52126864  0.59388589    -0.08700
C2252       C  0.30899126  0.50644732  0.62514133    -0.06100
C2253       C  0.29678679  0.51976958  0.65621804    -0.00200
C2254       C  0.26925698  0.54349572  0.65639376    -0.08700
C2255       C  0.24785535  0.55181853  0.68775870     0.61700
H2256       H  0.24376615  0.58218002  0.62596397     0.12400
H2257       H  0.32854803  0.48637977  0.62544015     0.12400
C2258       C  0.31379093  0.50402512  0.56185255     0.62000
F2259       F  0.21294895  0.55093830  0.67936905    -0.23200
F2260       F  0.25624956  0.58448830  0.69873842    -0.20500
F2261       F  0.25308101  0.52824864  0.71404430    -0.20200
F2262       F  0.30361940  0.46976803  0.56195181    -0.20300
F2263       F  0.34970951  0.50524201  0.56224856    -0.20600
F2264       F  0.30207781  0.51867731  0.53173412    -0.23300
C2265       C  0.38287256  0.67858734  0.49209944    -0.06100
C2266       C  0.35175827  0.69530964  0.48393158    -0.00200
C2267       C  0.35215984  0.73068455  0.47519140    -0.08700
C2268       C  0.38407372  0.74483123  0.46487960    -0.06100
C2269       C  0.41397912  0.72419912  0.46485888    -0.00200
C2270       C  0.41445326  0.69396458  0.48479675    -0.08700
C2271       C  0.44629718  0.67931236  0.50179632     0.61700
H2272       H  0.38266079  0.65276931  0.50280693     0.12400
H2273       H  0.38510836  0.77021746  0.45304487     0.12400
C2274       C  0.31935239  0.75188505  0.47366410     0.62000
F2275       F  0.44294106  0.68302951  0.53707543    -0.23200
F2276       F  0.47625567  0.69603755  0.49154866    -0.20500
F2277       F  0.44858339  0.64455393  0.49475062    -0.20200
F2278       F  0.30287897  0.75116015  0.50538472    -0.20300
F2279       F  0.29788144  0.73808905  0.44911986    -0.20600
F2280       F  0.32598555  0.78602818  0.46516043    -0.23300
C2281       C  0.37590215  0.54168707  0.49261975    -0.06100
C2282       C  0.36929855  0.56811928  0.51648120    -0.00200
C2283       C  0.39529501  0.57513206  0.54164308    -0.08700
C2284       C  0.42797527  0.55825821  0.53914387    -0.06100
C2285       C  0.43454363  0.53256448  0.51458738    -0.00200
C2286       C  0.40728392  0.52294324  0.49197984    -0.08700
C2287       C  0.40889358  0.49061309  0.46990395     0.61700
H2288       H  0.35562683  0.53491868  0.47465786     0.12400
H2289       H  0.44865694  0.56474522  0.55671205     0.12400
C2290       C  0.38828810  0.59822125  0.57241295     0.62000
F2291       F  0.38386545  0.49115734  0.44434794    -0.23200
F2292       F  0.40282493  0.46220242  0.49073072    -0.20500
F2293       F  0.44064731  0.48682503  0.45380755    -0.20200
F2294       F  0.35779424  0.58816292  0.58848347    -0.20300
F2295       F  0.38556829  0.63229089  0.56216591    -0.20600
F2296       F  0.41467395  0.59601454  0.59652023    -0.23300
C2297       C  0.13914672  0.52226906  0.46562435    -0.06100
C2298       C  0.14824062  0.54814724  0.48899121    -0.00200
C2299       C  0.12891867  0.54866319  0.52049013    -0.08700
C2300       C  0.09586352  0.53299912  0.52134114    -0.06100
C2301       C  0.08208339  0.51429518  0.49367805    -0.00200
C2302       C  0.10879498  0.50195325  0.47064040    -0.08700
C2303       C  0.11083954  0.46556932  0.45652903     0.61700
H2304       H  0.15730144  0.51585450  0.44524207     0.12400
H2305       H  0.08236477  0.53292420  0.54508012     0.12400
C2306       C  0.14123868  0.56456749  0.55398720     0.62000
F2307       F  0.11683495  0.46602598  0.42156362    -0.23200
F2308       F  0.08151407  0.44672643  0.46258923    -0.20500
F2309       F  0.13822652  0.44851825  0.47221863    -0.20200
F2310       F  0.17687762  0.56591160  0.55585850    -0.20300
F2311       F  0.13035768  0.54477131  0.58184271    -0.20600
F2312       F  0.12723092  0.59725596  0.55753031    -0.23300
C2313       C  0.24644736  0.72190626  0.65425836    -0.06100
C2314       C  0.22949641  0.70527435  0.68192873    -0.00200
C2315       C  0.21127987  0.67417415  0.67409752    -0.08700
C2316       C  0.21206097  0.66078590  0.63998275    -0.06100
C2317       C  0.23000838  0.67688227  0.61246360    -0.00200
C2318       C  0.24719190  0.70868645  0.62008514    -0.08700
C2319       C  0.26687558  0.72894355  0.59268787     0.61700
H2320       H  0.25934934  0.74600581  0.65980323     0.12400
H2321       H  0.19836211  0.63692947  0.63490599     0.12400
C2322       C  0.18939193  0.65430088  0.69978013     0.62000
F2323       F  0.28057107  0.75932703  0.60540876    -0.23200
F2324       F  0.24466094  0.73763369  0.56605145    -0.20500
F2325       F  0.29424919  0.70934803  0.58028818    -0.20200
F2326       F  0.15499851  0.65618809  0.68979973    -0.20300
F2327       F  0.19232814  0.66653366  0.73272996    -0.20600
F2328       F  0.19923068  0.62003436  0.70023529    -0.23300
C2329       C  0.31989301  0.77058428  0.32407088    -0.06100
C2330       C  0.32012388  0.76205042  0.28877839    -0.00200
C2331       C  0.35305611  0.75230535  0.27463057    -0.08700
C2332       C  0.38352972  0.75503153  0.29487862    -0.06100
C2333       C  0.38319770  0.76456533  0.32988718    -0.00200
C2334       C  0.35005093  0.77120130  0.34484807    -0.08700
C2335       C  0.34542224  0.77535149  0.38318765     0.61700
H2336       H  0.29512741  0.77667431  0.33563446     0.12400
H2337       H  0.40798251  0.74737379  0.28332512     0.12400
C2338       C  0.35796854  0.73551689  0.23983869     0.62000
F2339       F  0.31098467  0.78024428  0.39242855    -0.23200
F2340       F  0.36395719  0.80348256  0.39479879    -0.20500
F2341       F  0.35688293  0.74536710  0.39881540    -0.20200
F2342       F  0.37767981  0.75674842  0.21876238    -0.20300
F2343       F  0.32686510  0.72836408  0.22423530    -0.20600
F2344       F  0.37560855  0.70454594  0.24371129    -0.23300
C2345       C  0.29976075  0.83342408  0.27627234    -0.06100
C2346       C  0.28389142  0.82183597  0.24594760    -0.00200
C2347       C  0.27839610  0.84890938  0.22141665    -0.08700
C2348       C  0.30317329  0.87576336  0.21941513    -0.06100
C2349       C  0.32682549  0.88139805  0.24632585    -0.00200
C2350       C  0.32283511  0.86147698  0.27670419    -0.08700
C2351       C  0.34231140  0.86992044  0.30955428     0.61700
H2352       H  0.29228928  0.82173250  0.30011526     0.12400
H2353       H  0.30019702  0.89550353  0.19981430     0.12400
C2354       C  0.24238991  0.85942279  0.20938055     0.62000
F2355       F  0.33321288  0.84814024  0.33646631    -0.23200
F2356       F  0.33508749  0.90334177  0.31972190    -0.20500
F2357       F  0.37756891  0.86636032  0.30380472    -0.20200
F2358       F  0.23378975  0.89110203  0.22348980    -0.20300
F2359       F  0.21724246  0.83647093  0.22000907    -0.20600
F2360       F  0.24172956  0.86304477  0.17398943    -0.23300
C2361       C  0.18208098  0.64196343  0.28921492    -0.06100
C2362       C  0.19092195  0.61697259  0.26455460    -0.00200
C2363       C  0.21652694  0.62599618  0.23938128    -0.08700
C2364       C  0.23039177  0.65988210  0.23915617    -0.06100
C2365       C  0.21849690  0.68588369  0.26148628    -0.00200
C2366       C  0.19312200  0.67661759  0.28669045    -0.08700
C2367       C  0.17538175  0.70164083  0.31082994     0.61700
H2368       H  0.16405945  0.63497156  0.30958855     0.12400
H2369       H  0.25012904  0.66689430  0.22044423     0.12400
C2370       C  0.22897046  0.60064520  0.21224210     0.62000
F2371       F  0.13982768  0.70002112  0.30705670    -0.23200
F2372       F  0.18499514  0.73524678  0.30499948    -0.20500
F2373       F  0.18292758  0.69243047  0.34430499    -0.20200
F2374       F  0.20153445  0.59123652  0.19140230    -0.20300
F2375       F  0.24285556  0.57166661  0.22809266    -0.20600
F2376       F  0.25448644  0.61467092  0.19120384    -0.23300
C2377       C  0.24823159  0.72918706  0.34145679    -0.06100
C2378       C  0.26739186  0.71390202  0.31450841    -0.00200
C2379       C  0.29210143  0.68813191  0.32394692    -0.08700
C2380       C  0.29448538  0.67763068  0.35892354    -0.06100
C2381       C  0.27025722  0.68804855  0.38430903    -0.00200
C2382       C  0.24740110  0.71575395  0.37552598    -0.08700
C2383       C  0.22080380  0.73055752  0.40070304     0.61700
H2384       H  0.23341329  0.75212713  0.33537603     0.12400
H2385       H  0.31439901  0.65912760  0.36596627     0.12400
C2386       C  0.31740303  0.67168665  0.29889723     0.62000
F2387       F  0.20307901  0.75846325  0.38674854    -0.23200
F2388       F  0.23674272  0.74189830  0.43024261    -0.20500
F2389       F  0.19656147  0.70566998  0.40940069    -0.20200
F2390       F  0.35041217  0.68373921  0.30556118    -0.20300
F2391       F  0.30889672  0.67830480  0.26502874    -0.20600
F2392       F  0.31799750  0.63628826  0.30322245    -0.23300
C2393       C  0.91551735  0.69344325  0.04200093    -0.06100
C2394       C  0.91823916  0.72929719  0.03982252    -0.00200
C2395       C  0.88882573  0.74845744  0.02899711    -0.08700
C2396       C  0.85688537  0.73077941  0.02551253    -0.06100
C2397       C  0.85351698  0.69654343  0.03790831    -0.00200
C2398       C  0.88337736  0.67948804  0.05044523    -0.08700
C2399       C  0.88231962  0.65109690  0.07771896     0.61700
H2400       H  0.93836977  0.67947316  0.05004550     0.12400
H2401       H  0.83431018  0.74400423  0.01529079     0.12400
C2402       C  0.89128368  0.78694090  0.02229610     0.62000
F2403       F  0.90818216  0.65608451  0.10185909    -0.23200
F2404       F  0.88730884  0.61945033  0.06231230    -0.20500
F2405       F  0.85133282  0.65122789  0.09591155    -0.20200
F2406       F  0.91779208  0.79336292  0.99898878    -0.20300
F2407       F  0.89819514  0.80413120  0.05261922    -0.20600
F2408       F  0.86068382  0.80004543  0.00881554    -0.23300
C2409       C  0.05308236  0.67279252  0.21993615    -0.06100
C2410       C  0.02115570  0.66620789  0.20573376    -0.00200
C2411       C  0.00355253  0.63489227  0.21199653    -0.08700
C2412       C  0.02247561  0.60795747  0.22719006    -0.06100
C2413       C  0.05785272  0.61249994  0.23403788    -0.00200
C2414       C  0.07235183  0.64614973  0.23369319    -0.08700
C2415       C  0.10750239  0.65459850  0.24788795     0.61700
H2416       H  0.06416640  0.69824639  0.21691252     0.12400
H2417       H  0.01097713  0.58267126  0.23049368     0.12400
C2418       C  0.96613756  0.62981764  0.20103371     0.62000
F2419       F  0.11363345  0.68976706  0.24832575    -0.23200
F2420       F  0.13306446  0.64003739  0.22771136    -0.20500
F2421       F  0.10862675  0.64260427  0.28138009    -0.20200
F2422       F  0.96308799  0.63402259  0.16578353    -0.20300
F2423       F  0.94533790  0.65399405  0.21723386    -0.20600
F2424       F  0.95410150  0.59724232  0.20977279    -0.23300
C2425       C  0.97862077  0.61659105  0.06253600    -0.06100
C2426       C  0.01164174  0.62921667  0.07091762    -0.00200
C2427       C  0.04095677  0.61035893  0.05817946    -0.08700
C2428       C  0.03521995  0.58139460  0.03673505    -0.06100
C2429       C  0.00145911  0.57111011  0.02694059    -0.00200
C2430       C  0.97503043  0.59600217  0.03306712    -0.08700
C2431       C  0.96295178  0.61784150  0.00273543     0.61700
H2432       H  0.95620912  0.63063809  0.07125091     0.12400
H2433       H  0.05691072  0.56533063  0.02930988     0.12400
C2434       C  0.07780182  0.61821853  0.06942825     0.62000
F2435       F  0.97292362  0.65205133  0.00596914    -0.23200
F2436       F  0.92725676  0.61714046  0.00052205    -0.20500
F2437       F  0.97817015  0.60677887  0.97274318    -0.20200
F2438       F  0.07850243  0.62469630  0.10440232    -0.20300
F2439       F  0.09020436  0.64658501  0.05148972    -0.20600
F2440       F  0.10000818  0.59072131  0.06331308    -0.23300
C2441       C  0.87920516  0.75299232  0.20843979    -0.06100
C2442       C  0.87870784  0.76608310  0.17462717    -0.00200
C2443       C  0.84599005  0.77698549  0.16116409    -0.08700
C2444       C  0.81566633  0.77419071  0.18222751    -0.06100
C2445       C  0.81618869  0.75898911  0.21539687    -0.00200
C2446       C  0.84897999  0.74728073  0.22798362    -0.08700
C2447       C  0.85442412  0.72657440  0.26073120     0.61700
H2448       H  0.90377590  0.74487428  0.21946419     0.12400
H2449       H  0.79095212  0.78271756  0.17223937     0.12400
C2450       C  0.84249553  0.79026828  0.12450817     0.62000
F2451       F  0.87342197  0.69707790  0.25351762    -0.23200
F2452       F  0.82387478  0.71622739  0.27537389    -0.20500
F2453       F  0.87280009  0.74586072  0.28424961    -0.20200
F2454       F  0.85397713  0.76531451  0.10180566    -0.20300
F2455       F  0.86191715  0.81991877  0.12023344    -0.20600
F2456       F  0.80839776  0.79816945  0.11628042    -0.23300
C2457       C  0.18394058  0.71254573  0.18588905    -0.06100
C2458       C  0.18986128  0.73714649  0.21207306    -0.00200
C2459       C  0.16061999  0.75758993  0.22249917    -0.08700
C2460       C  0.12858509  0.75461559  0.20488103    -0.06100
C2461       C  0.12309850  0.73182920  0.17726271    -0.00200
C2462       C  0.15107259  0.70902646  0.16889961    -0.08700
C2463       C  0.14603562  0.68023282  0.14311576     0.61700
H2464       H  0.20559452  0.69640779  0.17825910     0.12400
H2465       H  0.10748397  0.77153728  0.21255198     0.12400
C2466       C  0.16141951  0.78497319  0.25037008     0.62000
F2467       F  0.17440048  0.65818232  0.14211060    -0.23200
F2468       F  0.14128082  0.69377265  0.11043522    -0.20500
F2469       F  0.11720994  0.66100081  0.15235791    -0.20200
F2470       F  0.15197098  0.81649713  0.23622176    -0.20300
F2471       F  0.19345339  0.78879400  0.26569526    -0.20600
F2472       F  0.13745090  0.77651892  0.27567485    -0.23300
C2473       C  0.09375977  0.82760164  0.06301048    -0.06100
C2474       C  0.08350699  0.79508277  0.05158260    -0.00200
C2475       C  0.10089026  0.77985544  0.02348293    -0.08700
C2476       C  0.13154609  0.79579098  0.01151705    -0.06100
C2477       C  0.14557953  0.82449349  0.02882054    -0.00200
C2478       C  0.12647352  0.84030885  0.05618868    -0.08700
C2479       C  0.14072479  0.86724419  0.08174452     0.61700
H2480       H  0.07900392  0.83975438  0.08302315     0.12400
H2481       H  0.14566148  0.78481727  0.99001280     0.12400
C2482       C  0.08742615  0.74731734  0.00678226     0.62000
F2483       F  0.11851481  0.87287666  0.10933134    -0.23200
F2484       F  0.14648041  0.89878393  0.06641017    -0.20500
F2485       F  0.17150848  0.85608627  0.09558604    -0.20200
F2486       F  0.05328418  0.75237821  0.99684487    -0.20300
F2487       F  0.08912321  0.71998995  0.02979180    -0.20600
F2488       F  0.10658516  0.73870112  0.97781379    -0.23300
C2489       C  0.36861698  0.75531436  0.92499389    -0.06100
C2490       C  0.39974420  0.76550762  0.94015650    -0.00200
C2491       C  0.40045788  0.77490589  0.97511444    -0.08700
C2492       C  0.36870317  0.78467139  0.98988975    -0.06100
C2493       C  0.33831969  0.78343512  0.97014643    -0.00200
C2494       C  0.33734301  0.76287482  0.94072383    -0.08700
C2495       C  0.30479824  0.74794327  0.92575891     0.61700
H2496       H  0.36843987  0.74301719  0.90005188     0.12400
H2497       H  0.36791092  0.79683347  0.01493574     0.12400
C2498       C  0.43390470  0.77605848  0.99554517     0.62000
F2499       F  0.30668529  0.71234559  0.92813610    -0.23200
F2500       F  0.30267094  0.75719021  0.89144277    -0.20500
F2501       F  0.27535025  0.75859592  0.94314353    -0.20200
F2502       F  0.45573304  0.80107708  0.98213943    -0.20300
F2503       F  0.45031048  0.74428790  0.99400396    -0.20600
F2504       F  0.42764793  0.78329042  0.02991853    -0.23300
C2505       C  0.33198952  0.92469250  0.09831025    -0.06100
C2506       C  0.30022983  0.93703502  0.08677722    -0.00200
C2507       C  0.27846429  0.95677373  0.10863250    -0.08700
C2508       C  0.28971691  0.96250704  0.14247441    -0.06100
C2509       C  0.31968725  0.94592219  0.15498152    -0.00200
C2510       C  0.33871639  0.92332380  0.13302143    -0.08700
C2511       C  0.36648991  0.89749201  0.14389045     0.61700
H2512       H  0.34837843  0.90989791  0.08099416     0.12400
H2513       H  0.27549673  0.97995765  0.15908102     0.12400
C2514       C  0.24378186  0.97103296  0.09651738     0.62000
F2515       F  0.36126973  0.86647692  0.12712729    -0.23200
F2516       F  0.36548421  0.89013191  0.17847852    -0.20500
F2517       F  0.39898560  0.91000117  0.13507345    -0.20200
F2518       F  0.22125782  0.94419327  0.08953568    -0.20300
F2519       F  0.24863701  0.99068730  0.06700417    -0.20600
F2520       F  0.22834882  0.99178944  0.12114751    -0.23300
C2521       C  0.19077810  0.94672498  0.90289098    -0.06100
C2522       C  0.22646662  0.94974827  0.90441150    -0.00200
C2523       C  0.24437293  0.96776998  0.87815766    -0.08700
C2524       C  0.22502622  0.97875168  0.84919296    -0.06100
C2525       C  0.19000948  0.96854325  0.84542085    -0.00200
C2526       C  0.17323106  0.94992171  0.87262349    -0.08700
C2527       C  0.13800971  0.93122988  0.87113568     0.61700
H2528       H  0.17747695  0.93504899  0.92384227     0.12400
H2529       H  0.23744096  0.99341994  0.82876778     0.12400
C2530       C  0.28285120  0.97520238  0.88093658     0.62000
F2531       F  0.13211884  0.90980550  0.89930404    -0.23200
F2532       F  0.13671582  0.91017782  0.84257084    -0.20500
F2533       F  0.11119108  0.95482477  0.87055636    -0.20200
F2534       F  0.30157948  0.94476685  0.87979412    -0.20300
F2535       F  0.28947325  0.99153411  0.91181422    -0.20600
F2536       F  0.29423138  0.99643761  0.85439708    -0.23300
C2537       C  0.23684159  0.78530968  0.87563294    -0.06100
C2538       C  0.25889683  0.81406090  0.87763928    -0.00200
C2539       C  0.27717276  0.82424347  0.84702554    -0.08700
C2540       C  0.27030094  0.80710118  0.81570418    -0.06100
C2541       C  0.24832567  0.77840992  0.81390201    -0.00200
C2542       C  0.23261184  0.76621853  0.84514539    -0.08700
C2543       C  0.21203743  0.73297430  0.84918816     0.61700
H2544       H  0.22350099  0.77660081  0.89873505     0.12400
H2545       H  0.28256890  0.81575273  0.79204535     0.12400
C2546       C  0.30406113  0.85285637  0.84668801     0.62000
F2547       F  0.22910710  0.71119858  0.87183878    -0.23200
F2548       F  0.20742435  0.71581964  0.81856808    -0.20500
F2549       F  0.17970565  0.74001082  0.86323258    -0.20200
F2550       F  0.32149330  0.85504397  0.81547118    -0.20300
F2551       F  0.32870108  0.84676627  0.87191946    -0.20600
F2552       F  0.28777195  0.88414932  0.85222735    -0.23300
C2553       C  0.27427001  0.81462092  0.12758062    -0.06100
C2554       C  0.24221434  0.81683549  0.11069110    -0.00200
C2555       C  0.21418138  0.79936569  0.12666396    -0.08700
C2556       C  0.21642917  0.79041206  0.16185483    -0.06100
C2557       C  0.24840782  0.78620017  0.17944532    -0.00200
C2558       C  0.27855811  0.79588880  0.15912483    -0.08700
C2559       C  0.31480255  0.78270748  0.16652921     0.61700
H2560       H  0.29655841  0.82546591  0.11434703     0.12400
H2561       H  0.19233407  0.78620192  0.17425075     0.12400
C2562       C  0.18419481  0.78382986  0.10725235     0.62000
F2563       F  0.33865794  0.79306447  0.14173930    -0.23200
F2564       F  0.31395362  0.74711814  0.16599716    -0.20500
F2565       F  0.32676236  0.79447753  0.19757561    -0.20200
F2566       F  0.18720069  0.78913330  0.07238247    -0.20300
F2567       F  0.15287943  0.79672935  0.11920791    -0.20600
F2568       F  0.18452019  0.74855714  0.11250388    -0.23300
C2569       C  0.37975751  0.95223441  0.99761663    -0.06100
C2570       C  0.37817366  0.91805252  0.01029973    -0.00200
C2571       C  0.40943470  0.90423627  0.02469757    -0.08700
C2572       C  0.44003155  0.92495511  0.02615303    -0.06100
C2573       C  0.44145517  0.95865452  0.01240186    -0.00200
C2574       C  0.41035467  0.97237988  0.99776555    -0.08700
C2575       C  0.40766314  0.00739114  0.98000641     0.61700
H2576       H  0.35672545  0.96347667  0.98607334     0.12400
H2577       H  0.46392178  0.91423043  0.03631415     0.12400
C2578       C  0.41181876  0.86677950  0.03517115     0.62000
F2579       F  0.40258542  0.00248395  0.94512887    -0.23200
F2580       F  0.43656355  0.02779055  0.98418597    -0.20500
F2581       F  0.37945375  0.02532341  0.99307865    -0.20200
F2582       F  0.40574863  0.84727331  0.00629280    -0.20300
F2583       F  0.38755198  0.85915236  0.06037607    -0.20600
F2584       F  0.44429631  0.85805603  0.04780387    -0.23300
C2585       C  0.02149940  0.85365891  0.70654552    -0.06100
C2586       C  0.02909060  0.84970891  0.67122595    -0.00200
C2587       C  0.04854460  0.87612496  0.65370351    -0.08700
C2588       C  0.05799717  0.90508722  0.67196663    -0.06100
C2589       C  0.05271027  0.90800470  0.70712584    -0.00200
C2590       C  0.03406831  0.88221327  0.72519559    -0.08700
C2591       C  0.02892742  0.88422163  0.76385098     0.61700
H2592       H  0.00690529  0.83364813  0.71970471     0.12400
H2593       H  0.07283269  0.92488591  0.65927443     0.12400
C2594       C  0.06050415  0.87512494  0.61610357     0.62000
F2595       F  0.01087748  0.85599468  0.77656870    -0.23200
F2596       F  0.01031874  0.91373717  0.77177895    -0.20500
F2597       F  0.06083259  0.88526197  0.78010823    -0.20200
F2598       F  0.03206477  0.87522430  0.59503887    -0.20300
F2599       F  0.08078411  0.84641295  0.61008361    -0.20600
F2600       F  0.08037966  0.90323538  0.60653395    -0.23300
C2601       C  0.00609512  0.63038943  0.70472758    -0.06100
C2602       C  0.98480025  0.65988902  0.70477553    -0.00200
C2603       C  0.95556978  0.66024996  0.72628746    -0.08700
C2604       C  0.94133484  0.62886150  0.73567058    -0.06100
C2605       C  0.95758415  0.59801470  0.72644079    -0.00200
C2606       C  0.99261359  0.59846813  0.71598475    -0.08700
C2607       C  0.01426638  0.56583774  0.71504232     0.61700
H2608       H  0.03116291  0.63159450  0.69203050     0.12400
H2609       H  0.91647991  0.62876171  0.74865120     0.12400
C2610       C  0.93908560  0.69217799  0.74064280     0.62000
F2611       F  0.04835566  0.57276816  0.70594299    -0.23200
F2612       F  0.00044012  0.54295095  0.69159614    -0.20500
F2613       F  0.01442860  0.55060292  0.74736356    -0.20200
F2614       F  0.90417028  0.69157600  0.73297942    -0.20300
F2615       F  0.95434157  0.72191693  0.72805042    -0.20600
F2616       F  0.94258621  0.69186805  0.77610188    -0.23300
C2617       C  0.14540810  0.71390226  0.51878104    -0.06100
C2618       C  0.14347718  0.67857800  0.51165255    -0.00200
C2619       C  0.11053041  0.66360427  0.50598670    -0.08700
C2620       C  0.08217369  0.67897036  0.52188237    -0.06100
C2621       C  0.08514692  0.71227991  0.53432580    -0.00200
C2622       C  0.11495674  0.73200228  0.52666166    -0.08700
C2623       C  0.11314186  0.77087009  0.52203536     0.61700
H2624       H  0.17022709  0.72701762  0.51767841     0.12400
H2625       H  0.05739150  0.66606201  0.52270551     0.12400
C2626       C  0.10328506  0.63909431  0.47676096     0.62000
F2627       F  0.14550161  0.78466721  0.51467725    -0.23200
F2628       F  0.10021463  0.78688111  0.55089157    -0.20500
F2629       F  0.09127235  0.77828640  0.49477217    -0.20200
F2630       F  0.09960540  0.60601165  0.48915529    -0.20300
F2631       F  0.12919196  0.64060560  0.45213250    -0.20600
F2632       F  0.07277242  0.64839575  0.46034495    -0.23300
C2633       C  0.84550231  0.77180485  0.52467939    -0.06100
C2634       C  0.85354837  0.80637736  0.51733939    -0.00200
C2635       C  0.88880074  0.81548093  0.51122889    -0.08700
C2636       C  0.91457654  0.79236283  0.52099029    -0.06100
C2637       C  0.90599875  0.76128955  0.53636998    -0.00200
C2638       C  0.87199594  0.74837877  0.53319014    -0.08700
C2639       C  0.86496238  0.70994422  0.53182488     0.61700
H2640       H  0.81870593  0.76333965  0.52403142     0.12400
H2641       H  0.94157707  0.79946528  0.51922816     0.12400
C2642       C  0.89966646  0.84852452  0.49382284     0.62000
F2643       F  0.83093391  0.70280414  0.54106102    -0.23200
F2644       F  0.88686698  0.69156509  0.55334881    -0.20500
F2645       F  0.87032734  0.69878484  0.49846259    -0.20200
F2646       F  0.89155092  0.87593265  0.51483258    -0.20300
F2647       F  0.88305427  0.85084869  0.46246063    -0.20600
F2648       F  0.93500852  0.84966949  0.48728076    -0.23300
C2649       C  0.11357679  0.75040307  0.69676608    -0.06100
C2650       C  0.11558377  0.76420757  0.66318338    -0.00200
C2651       C  0.14933576  0.77355320  0.65082308    -0.08700
C2652       C  0.17830095  0.77141699  0.67348960    -0.06100
C2653       C  0.17606586  0.75593210  0.70634211    -0.00200
C2654       C  0.14288896  0.74366667  0.71721228    -0.08700
C2655       C  0.13596865  0.72105981  0.74851932     0.61700
H2656       H  0.08863040  0.74195328  0.70671040     0.12400
H2657       H  0.20360133  0.78015096  0.66495487     0.12400
C2658       C  0.15581108  0.78314007  0.61356043     0.62000
F2659       F  0.11258564  0.73734521  0.77011829    -0.23200
F2660       F  0.16547172  0.71299425  0.76668308    -0.20500
F2661       F  0.12105549  0.69041919  0.73810058    -0.20200
F2662       F  0.13708095  0.81226645  0.60494886    -0.20300
F2663       F  0.14609508  0.75583197  0.59306019    -0.20600
F2664       F  0.19052359  0.78991302  0.60692648    -0.23300
C2665       C  0.03024100  0.55887430  0.56939810    -0.06100
C2666       C  0.02155047  0.55575100  0.53443370    -0.00200
C2667       C  0.01001246  0.58634006  0.51714143    -0.08700
C2668       C  0.00901859  0.61806248  0.53522630    -0.06100
C2669       C  0.01925355  0.62130515  0.56996173    -0.00200
C2670       C  0.03001794  0.59055319  0.58715024    -0.08700
C2671       C  0.03755212  0.58986005  0.62512155     0.61700
H2672       H  0.03691206  0.53547950  0.58317847     0.12400
H2673       H  0.99940631  0.64077657  0.52179079     0.12400
C2674       C  0.99601636  0.58750465  0.48062116     0.62000
F2675       F  0.04654879  0.55721682  0.63688009    -0.23200
F2676       F  0.00760064  0.59986049  0.64180929    -0.20500
F2677       F  0.06474696  0.61178244  0.63269721    -0.20200
F2678       F  0.96110981  0.59609448  0.48167423    -0.20300
F2679       F  0.99955100  0.55687765  0.46321717    -0.20600
F2680       F  0.01337869  0.61257336  0.46189245    -0.23300
C2681       C  0.87808941  0.74905111  0.70597577    -0.06100
C2682       C  0.88000383  0.73285072  0.67362793    -0.00200
C2683       C  0.84818138  0.72049103  0.65935035    -0.08700
C2684       C  0.81697772  0.72398010  0.67806233    -0.06100
C2685       C  0.81586009  0.73740649  0.71137982    -0.00200
C2686       C  0.84728842  0.74981826  0.72589680    -0.08700
C2687       C  0.85067253  0.76325270  0.76239271     0.61700
H2688       H  0.90150897  0.75980504  0.71690558     0.12400
H2689       H  0.79273279  0.71586364  0.66677037     0.12400
C2690       C  0.84596386  0.70634812  0.62334685     0.62000
F2691       F  0.86599831  0.79552325  0.76167207    -0.23200
F2692       F  0.87170132  0.74097676  0.78098196    -0.20500
F2693       F  0.81941241  0.76614231  0.77955215    -0.20200
F2694       F  0.86577927  0.67663183  0.62053918    -0.20300
F2695       F  0.85771803  0.73165148  0.60125961    -0.20600
F2696       F  0.81233378  0.69821622  0.61376904    -0.23300
C2697       C  0.91810265  0.96925643  0.50725026    -0.06100
C2698       C  0.94155175  0.95803217  0.48172736    -0.00200
C2699       C  0.92847261  0.93619785  0.45541151    -0.08700
C2700       C  0.89294861  0.92665268  0.45601729    -0.06100
C2701       C  0.86989958  0.93611327  0.48279291    -0.00200
C2702       C  0.88305847  0.95818509  0.50892911    -0.08700
C2703       C  0.86103854  0.96901974  0.53955084     0.61700
H2704       H  0.92794181  0.98668978  0.52659709     0.12400
H2705       H  0.88348395  0.91007844  0.43579826     0.12400
C2706       C  0.95036500  0.92147401  0.42645882     0.62000
F2707       F  0.87941346  0.98931880  0.56237658    -0.23200
F2708       F  0.84981321  0.94003294  0.55734053    -0.20500
F2709       F  0.83273420  0.98798461  0.52830982    -0.20200
F2710       F  0.98484685  0.93018053  0.42889173    -0.20300
F2711       F  0.93802469  0.93346129  0.39523111    -0.20600
F2712       F  0.94811636  0.88583944  0.42684733    -0.23300
C2713       C  0.10889898  0.07727858  0.53242031    -0.06100
C2714       C  0.13502205  0.07045314  0.50778654    -0.00200
C2715       C  0.12777151  0.04521633  0.48204053    -0.08700
C2716       C  0.09549141  0.02787349  0.48271429    -0.06100
C2717       C  0.06925260  0.03509778  0.50687046    -0.00200
C2718       C  0.07609237  0.06061538  0.53216658    -0.08700
C2719       C  0.05015239  0.07178915  0.55931566     0.61700
H2720       H  0.11391639  0.09643655  0.55203082     0.12400
H2721       H  0.09011242  0.00828790  0.46369889     0.12400
C2722       C  0.15320281  0.03664268  0.45313797     0.62000
F2723       F  0.06268518  0.06271042  0.59147970    -0.23200
F2724       F  0.01780937  0.05721051  0.55512696    -0.20500
F2725       F  0.04619669  0.10728400  0.55793191    -0.20200
F2726       F  0.18266626  0.02122890  0.46660706    -0.20300
F2727       F  0.16217792  0.06642823  0.43539155    -0.20600
F2728       F  0.13916972  0.01398037  0.42949246    -0.23300
C2729       C  0.09478817  0.97520139  0.59718881    -0.06100
C2730       C  0.07493420  0.98532840  0.62617063    -0.00200
C2731       C  0.03876456  0.99189193  0.62057221    -0.08700
C2732       C  0.02475839  0.98900259  0.58682112    -0.06100
C2733       C  0.04492636  0.98024325  0.55781768    -0.00200
C2734       C  0.08043806  0.97167762  0.56364176    -0.08700
C2735       C  0.10419758  0.95734792  0.53600480     0.61700
H2736       H  0.12205800  0.96922158  0.60076044     0.12400
H2737       H  0.99772294  0.99531763  0.58238448     0.12400
C2738       C  0.01468098  0.00300156  0.64960365     0.62000
F2739       F  0.13172160  0.97948075  0.53087251    -0.23200
F2740       F  0.08777113  0.95289356  0.50495969    -0.20500
F2741       F  0.11696237  0.92557650  0.54652988    -0.20200
F2742       F  0.02553679  0.03435550  0.66261209    -0.20300
F2743       F  0.01462740  0.97826675  0.67546524    -0.20600
F2744       F  0.98073759  0.00715433  0.63861856    -0.23300
C2745       C  0.04026763  0.06934712  0.43406656    -0.06100
C2746       C  0.01450284  0.06081229  0.45846957    -0.00200
C2747       C  0.98908178  0.08637057  0.46651811    -0.08700
C2748       C  0.98952870  0.11834434  0.44876248    -0.06100
C2749       C  0.01504719  0.12686471  0.42409220    -0.00200
C2750       C  0.04170488  0.10213657  0.41756552    -0.08700
C2751       C  0.07251312  0.11058325  0.39455132     0.61700
H2752       H  0.05935274  0.04993237  0.42765783     0.12400
H2753       H  0.96938783  0.13710577  0.45449022     0.12400
C2754       C  0.96093765  0.08213747  0.49382209     0.62000
F2755       F  0.09792697  0.08525898  0.39624676    -0.23200
F2756       F  0.08733161  0.14131453  0.40492252    -0.20500
F2757       F  0.06192283  0.11344774  0.36066405    -0.20200
F2758       F  0.96433916  0.10813238  0.51786602    -0.20300
F2759       F  0.96216102  0.05097714  0.51122930    -0.20600
F2760       F  0.92866343  0.08517494  0.47851984    -0.23300
C2761       C  0.00188902  0.86359702  0.52553650    -0.06100
C2762       C  0.97883153  0.85913238  0.55335656    -0.00200
C2763       C  0.96198586  0.88927736  0.56667702    -0.08700
C2764       C  0.97118050  0.92229477  0.55357279    -0.06100
C2765       C  0.99517401  0.92670898  0.52658018    -0.00200
C2766       C  0.00991391  0.89642313  0.51154682    -0.08700
C2767       C  0.03457079  0.89636948  0.48094686     0.61700
H2768       H  0.01474643  0.84106866  0.51493719     0.12400
H2769       H  0.95936635  0.94522021  0.56434308     0.12400
C2770       C  0.93453461  0.88728281  0.59487878     0.62000
F2771       F  0.02102893  0.87570643  0.45533913    -0.23200
F2772       F  0.06619420  0.88269179  0.49103837    -0.20500
F2773       F  0.04032360  0.92868571  0.46706449    -0.20200
F2774       F  0.95005300  0.88045541  0.62628775    -0.20300
F2775       F  0.91077291  0.86164091  0.58741312    -0.20600
F2776       F  0.91631517  0.91800418  0.59791629    -0.23300
C2777       C  0.96714206  0.11093452  0.26228680    -0.06100
C2778       C  0.93839914  0.09866057  0.28130362    -0.00200
C2779       C  0.92248570  0.12080252  0.30511663    -0.08700
C2780       C  0.92831660  0.15560979  0.30190065    -0.06100
C2781       C  0.96186900  0.16533678  0.29298004    -0.00200
C2782       C  0.98123302  0.14375586  0.27034963    -0.08700
C2783       C  0.01564444  0.15525454  0.25526920     0.61700
H2784       H  0.97923192  0.09448203  0.24321402     0.12400
H2785       H  0.91297451  0.17233665  0.31803937     0.12400
C2786       C  0.90964025  0.10735117  0.33936428     0.62000
F2787       F  0.02807962  0.13190803  0.23129550    -0.23200
F2788       F  0.04011935  0.15827434  0.28105826    -0.20500
F2789       F  0.01144549  0.18689412  0.23903764    -0.20200
F2790       F  0.92600021  0.07675841  0.34677705    -0.20300
F2791       F  0.87408229  0.10282241  0.33823395    -0.20600
F2792       F  0.91820907  0.12935018  0.36597839    -0.23300
C2793       C  0.81565568  0.04495573  0.08920751    -0.06100
C2794       C  0.78039633  0.04128422  0.08403827    -0.00200
C2795       C  0.75997993  0.02452014  0.10942397    -0.08700
C2796       C  0.77595085  0.01593198  0.14103340    -0.06100
C2797       C  0.80922594  0.02902942  0.14844979    -0.00200
C2798       C  0.82748271  0.04794777  0.12239693    -0.08700
C2799       C  0.85804354  0.07256808  0.12790284     0.61700
H2800       H  0.83140398  0.05518238  0.06886375     0.12400
H2801       H  0.76200675  0.00136785  0.16052700     0.12400
C2802       C  0.72215559  0.01637993  0.10292529     0.62000
F2803       F  0.85963068  0.09732770  0.10204882    -0.23200
F2804       F  0.88903410  0.05450431  0.12768051    -0.20500
F2805       F  0.85446131  0.09050522  0.15839893    -0.20200
F2806       F  0.71948908  0.99720313  0.07311133    -0.20300
F2807       F  0.70332173  0.04662849  0.09916522    -0.20600
F2808       F  0.70772341  0.99750832  0.12975173    -0.23300
C2809       C  0.81192138  0.95299759  0.40706031    -0.06100
C2810       C  0.77710069  0.95882037  0.41374884    -0.00200
C2811       C  0.75636066  0.97439602  0.38770524    -0.08700
C2812       C  0.77179331  0.97966976  0.35484557    -0.06100
C2813       C  0.80383911  0.96347750  0.34739131    -0.00200
C2814       C  0.82059108  0.94505661  0.37382044    -0.08700
C2815       C  0.84134568  0.91264859  0.36741115     0.61700
H2816       H  0.82812805  0.94240833  0.42671366     0.12400
H2817       H  0.75861591  0.99440227  0.33500152     0.12400
C2818       C  0.71906388  0.98471728  0.39468110     0.62000
F2819       F  0.83569124  0.88829485  0.39308651    -0.23200
F2820       F  0.87639141  0.92007563  0.36608460    -0.20500
F2821       F  0.83038165  0.89830882  0.33698266    -0.20200
F2822       F  0.71770454  0.00608524  0.42309334    -0.20300
F2823       F  0.69920750  0.95565889  0.40111510    -0.20600
F2824       F  0.70478041  0.00221843  0.36690407    -0.23300
C2825       C  0.97268971  0.88940596  0.23679786    -0.06100
C2826       C  0.94241049  0.89879900  0.21884027    -0.00200
C2827       C  0.92568736  0.87382708  0.19842686    -0.08700
C2828       C  0.93328021  0.83973041  0.20464430    -0.06100
C2829       C  0.96781247  0.83249991  0.21154505    -0.00200
C2830       C  0.98764702  0.85666615  0.23061291    -0.08700
C2831       C  0.02467451  0.84919821  0.24130666     0.61700
H2832       H  0.98547569  0.90811197  0.25300864     0.12400
H2833       H  0.91779216  0.82081575  0.19151393     0.12400
C2834       C  0.90774456  0.88309873  0.16505924     0.62000
F2835       F  0.03616116  0.87278820  0.26536597    -0.23200
F2836       F  0.04626265  0.85099368  0.21279780    -0.20500
F2837       F  0.02686726  0.81653392  0.25578241    -0.20200
F2838       F  0.92046656  0.91429747  0.15344678    -0.20300
F2839       F  0.87215159  0.88474171  0.16980243    -0.20600
F2840       F  0.91495320  0.85914699  0.13970887    -0.23300
C2841       C  0.78860976  0.87368308  0.24924509    -0.06100
C2842       C  0.82156884  0.87791156  0.26429297    -0.00200
C2843       C  0.83825524  0.84776411  0.27863493    -0.08700
C2844       C  0.81987093  0.81633557  0.27973753    -0.06100
C2845       C  0.78776750  0.81222629  0.26393697    -0.00200
C2846       C  0.77216498  0.84112342  0.24730677    -0.08700
C2847       C  0.73898654  0.83763156  0.22641973     0.61700
H2848       H  0.77627212  0.89598399  0.23757528     0.12400
H2849       H  0.83125729  0.79373991  0.29149506     0.12400
C2850       C  0.87619120  0.84659139  0.29004233     0.62000
F2851       F  0.73035209  0.86814015  0.20967584    -0.23200
F2852       F  0.71161732  0.82866025  0.24754058    -0.20500
F2853       F  0.74301023  0.81250049  0.20167573    -0.20200
F2854       F  0.88239001  0.86774192  0.31767031    -0.20300
F2855       F  0.89696579  0.85671410  0.26315708    -0.20600
F2856       F  0.88675273  0.81369327  0.29950802    -0.23300
C2857       C  0.82382165  0.13569049  0.26339646    -0.06100
C2858       C  0.81320457  0.11109824  0.23888134    -0.00200
C2859       C  0.78030956  0.11639821  0.22298441    -0.08700
C2860       C  0.76237121  0.14762829  0.22935588    -0.06100
C2861       C  0.77606269  0.17355718  0.25074166    -0.00200
C2862       C  0.79914863  0.15980335  0.27560234    -0.08700
C2863       C  0.78177675  0.14550169  0.30799353     0.61700
H2864       H  0.84583484  0.12941458  0.27962411     0.12400
H2865       H  0.73654568  0.15016848  0.21996118     0.12400
C2866       C  0.76482715  0.09104213  0.19796221     0.62000
F2867       F  0.76684105  0.11372481  0.30125791    -0.23200
F2868       F  0.75559048  0.16665372  0.31952298    -0.20500
F2869       F  0.80584614  0.14076862  0.33379005    -0.20200
F2870       F  0.76449393  0.05812385  0.21183860    -0.20300
F2871       F  0.78433716  0.09194097  0.16821659    -0.20600
F2872       F  0.73097454  0.09944975  0.18928957    -0.23300
C2873       C  0.93471959  0.01730525  0.42911512    -0.06100
C2874       C  0.96957628  0.00709732  0.42860756    -0.00200
C2875       C  0.98541561  0.00011533  0.39612578    -0.08700
C2876       C  0.96519168  0.00240080  0.36591402    -0.06100
C2877       C  0.92948625  0.01043443  0.36642514    -0.00200
C2878       C  0.91412944  0.01884877  0.39910662    -0.08700
C2879       C  0.87635838  0.02940067  0.40355482     0.61700
H2880       H  0.92340212  0.02318317  0.45393927     0.12400
H2881       H  0.97757343  0.99671873  0.34145654     0.12400
C2882       C  0.02295218  0.98881276  0.39114565     0.62000
F2883       F  0.86667316  0.03193807  0.43786116    -0.23200
F2884       F  0.85514384  0.00540847  0.38888000    -0.20500
F2885       F  0.87051931  0.06100047  0.38831737    -0.20200
F2886       F  0.02377450  0.95786607  0.37349119    -0.20300
F2887       F  0.04079467  0.98406748  0.42153226    -0.20600
F2888       F  0.04019641  0.01346182  0.37167917    -0.23300
C2889       C  0.08178907  0.31954525  0.95061653    -0.06100
C2890       C  0.07718733  0.28447467  0.95470370    -0.00200
C2891       C  0.10273210  0.26447949  0.97160682    -0.08700
C2892       C  0.13472113  0.28026762  0.97906001    -0.06100
C2893       C  0.14163590  0.31401660  0.96724532    -0.00200
C2894       C  0.11471439  0.33333209  0.95051242    -0.08700
C2895       C  0.11922150  0.36755033  0.93103530     0.61700
H2896       H  0.06075568  0.33450510  0.94052125     0.12400
H2897       H  0.15463223  0.26613688  0.99289290     0.12400
C2898       C  0.09569230  0.22738916  0.98203948     0.62000
F2899       F  0.09221798  0.37365519  0.90859190    -0.23200
F2900       F  0.14885507  0.36706767  0.91108705    -0.20500
F2901       F  0.12029473  0.39483982  0.95364444    -0.20200
F2902       F  0.09042671  0.20728837  0.95322441    -0.20300
F2903       F  0.06627866  0.22626243  0.00261173    -0.20600
F2904       F  0.12307835  0.21336616  0.00048816    -0.23300
C2905       C  0.01296786  0.11669635  0.82136438    -0.06100
C2906       C  0.02138048  0.14888334  0.80719149    -0.00200
C2907       C  0.03342046  0.15098862  0.77280923    -0.08700
C2908       C  0.04619833  0.12073682  0.75787983    -0.06100
C2909       C  0.04259847  0.08892329  0.77469126    -0.00200
C2910       C  0.02088269  0.08641650  0.80386777    -0.08700
C2911       C  0.00108286  0.05434429  0.81393128     0.61700
H2912       H  0.99904834  0.11525793  0.84567302     0.12400
H2913       H  0.06021792  0.12176952  0.73372376     0.12400
C2914       C  0.03248416  0.18414905  0.75210790     0.62000
F2915       F  0.96627745  0.05963721  0.80683936    -0.23200
F2916       F  0.00418645  0.04843700  0.84886314    -0.20500
F2917       F  0.01189797  0.02568183  0.79588126    -0.20200
F2918       F  0.04967524  0.20963484  0.76936857    -0.20300
F2919       F  0.99833720  0.19417691  0.74731677    -0.20600
F2920       F  0.04789020  0.18045133  0.72004429    -0.23300
C2921       C  0.99905644  0.36553644  0.78502170    -0.06100
C2922       C  0.97919175  0.33544092  0.78455469    -0.00200
C2923       C  0.94802460  0.33519382  0.76626028    -0.08700
C2924       C  0.93108595  0.36639404  0.76125235    -0.06100
C2925       C  0.94834759  0.39746101  0.76732132    -0.00200
C2926       C  0.98435283  0.39700674  0.77456717    -0.08700
C2927       C  0.00608387  0.42927884  0.77371597     0.61700
H2928       H  0.02459263  0.36476181  0.79664154     0.12400
H2929       H  0.90480568  0.36646852  0.75154682     0.12400
C2930       C  0.93761741  0.30486812  0.74473158     0.62000
F2931       F  0.03996174  0.42309787  0.78398731    -0.23200
F2932       F  0.99155819  0.45294512  0.79565284    -0.20500
F2933       F  0.00688363  0.44262401  0.74059375    -0.20200
F2934       F  0.90254132  0.29852645  0.74821176    -0.20300
F2935       F  0.95660614  0.27585490  0.75350254    -0.20600
F2936       F  0.94431310  0.31255382  0.71050012    -0.23300
C2937       C  0.83367614  0.22305708  0.95309430    -0.06100
C2938       C  0.84282428  0.20557312  0.98282964    -0.00200
C2939       C  0.87698146  0.20762078  0.99569841    -0.08700
C2940       C  0.90279257  0.22059361  0.97382503    -0.06100
C2941       C  0.89422330  0.23179015  0.94062897    -0.00200
C2942       C  0.85899882  0.23595915  0.93119743    -0.08700
C2943       C  0.84785558  0.25322778  0.89820981     0.61700
H2944       H  0.80689340  0.22298095  0.94522554     0.12400
H2945       H  0.92975302  0.22006449  0.98189123     0.12400
C2946       C  0.88728807  0.19647412  0.03156682     0.62000
F2947       F  0.81231478  0.25805187  0.89697612    -0.23200
F2948       F  0.85708942  0.23293545  0.87054447    -0.20500
F2949       F  0.86330520  0.28530212  0.89620873    -0.20200
F2950       F  0.85960367  0.18397730  0.05063896    -0.20300
F2951       F  0.90108399  0.22443985  0.04876317    -0.20600
F2952       F  0.91241463  0.17125438  0.02932196    -0.23300
C2953       C  0.11504103  0.24171589  0.79375578    -0.06100
C2954       C  0.11546045  0.23099348  0.82822895    -0.00200
C2955       C  0.14843803  0.22383024  0.84329552    -0.08700
C2956       C  0.17910135  0.22795589  0.82288913    -0.06100
C2957       C  0.17815289  0.23872377  0.78795584    -0.00200
C2958       C  0.14480914  0.24532616  0.77342657    -0.08700
C2959       C  0.13770462  0.25812748  0.73722847     0.61700
H2960       H  0.09081046  0.24988427  0.78242733     0.12400
H2961       H  0.20418723  0.22398129  0.83463072     0.12400
C2962       C  0.15163860  0.21341207  0.88088788     0.62000
F2963       F  0.12049719  0.23276609  0.71910000    -0.23200
F2964       F  0.16723849  0.26679930  0.71999807    -0.20500
F2965       F  0.11687522  0.28733132  0.73820547    -0.20200
F2966       F  0.13297611  0.18349118  0.88700756    -0.20300
F2967       F  0.13898880  0.23963247  0.90149714    -0.20600
F2968       F  0.18580501  0.20724077  0.89018553    -0.23300
C2969       C  0.99527356  0.37441027  0.95377060    -0.06100
C2970       C  0.00924314  0.37245506  0.92018044    -0.00200
C2971       C  0.02253384  0.40384002  0.90574773    -0.08700
C2972       C  0.02570316  0.43361988  0.92689479    -0.06100
C2973       C  0.01005006  0.43584492  0.95965721    -0.00200
C2974       C  0.99328149  0.40557738  0.97259164    -0.08700
C2975       C  0.97171938  0.40418999  0.00541559     0.61700
H2976       H  0.98380794  0.35144855  0.96511299     0.12400
H2977       H  0.03812360  0.45656845  0.91678632     0.12400
C2978       C  0.02854155  0.40793141  0.86734427     0.62000
F2979       F  0.93861002  0.39293070  0.99760235    -0.23200
F2980       F  0.96856188  0.43563232  0.02157533    -0.20500
F2981       F  0.98651198  0.38088401  0.02821193    -0.20200
F2982       F  0.99775622  0.40060446  0.85081205    -0.20300
F2983       F  0.05437608  0.38609973  0.85570150    -0.20600
F2984       F  0.03797584  0.44134341  0.85851440    -0.23300
C2985       C  0.85864975  0.29337970  0.81955940    -0.06100
C2986       C  0.88135855  0.26695003  0.80890551    -0.00200
C2987       C  0.86872487  0.24207284  0.78519992    -0.08700
C2988       C  0.83421652  0.24539897  0.77333630    -0.06100
C2989       C  0.81037229  0.26886912  0.78779199    -0.00200
C2990       C  0.82300898  0.29302011  0.81206510    -0.08700
C2991       C  0.80074991  0.31833256  0.83176321     0.61700
H2992       H  0.86824815  0.31318246  0.83668924     0.12400
H2993       H  0.82528898  0.22909193  0.75275706     0.12400
C2994       C  0.89044539  0.21164129  0.77288603     0.62000
F2995       F  0.80829164  0.31682788  0.86645905    -0.23200
F2996       F  0.76594867  0.31141976  0.82847768    -0.20500
F2997       F  0.80808531  0.35139416  0.82046658    -0.20200
F2998       F  0.90212155  0.19258083  0.80079126    -0.20300
F2999       F  0.91846913  0.22313014  0.75389743    -0.20600
F3000       F  0.87156767  0.18970668  0.75204954    -0.23300
C3001       C  0.91366587  0.02570224  0.00124151    -0.06100
C3002       C  0.94130986  0.04444552  0.01567719    -0.00200
C3003       C  0.93329763  0.07667469  0.03112059    -0.08700
C3004       C  0.89873145  0.08920328  0.03027448    -0.06100
C3005       C  0.87104803  0.07108871  0.01500439    -0.00200
C3006       C  0.87876326  0.03785241  0.00121412    -0.08700
C3007       C  0.85056471  0.01459478  0.98716931     0.61700
H3008       H  0.91986294  0.00105132  0.98967906     0.12400
H3009       H  0.89328468  0.11371186  0.04228254     0.12400
C3010       C  0.95980060  0.09928398  0.04861283     0.62000
F3011       F  0.86340114  0.98245499  0.97808204    -0.23200
F3012       F  0.83599282  0.02941438  0.95810880    -0.20500
F3013       F  0.82521249  0.00954784  0.01204230    -0.20200
F3014       F  0.99161706  0.08358214  0.05155323    -0.20300
F3015       F  0.94832815  0.10752199  0.08140076    -0.20600
F3016       F  0.96406813  0.12933626  0.02978035    -0.23300
C3017       C  0.04197177  0.99270981  0.87669761    -0.06100
C3018       C  0.06741860  0.01670850  0.86657719    -0.00200
C3019       C  0.07604981  0.04311081  0.89074154    -0.08700
C3020       C  0.06187476  0.04182730  0.92460817    -0.06100
C3021       C  0.03905479  0.01566753  0.93587354    -0.00200
C3022       C  0.02607556  0.99328884  0.90974425    -0.08700
C3023       C  0.99331941  0.97209872  0.91339564     0.61700
H3024       H  0.03327660  0.97393610  0.85801423     0.12400
H3025       H  0.06958538  0.06092083  0.94310414     0.12400
C3026       C  0.09938391  0.07335463  0.88107203     0.62000
F3027       F  0.00084169  0.93761295  0.90798251    -0.23200
F3028       F  0.96977466  0.98282679  0.88866369    -0.20500
F3029       F  0.97751626  0.97586621  0.94499483    -0.20200
F3030       F  0.08851452  0.08785267  0.85030234    -0.20300
F3031       F  0.13344931  0.06240757  0.87793338    -0.20600
F3032       F  0.09843973  0.09910005  0.90568286    -0.23300
C3033       C  0.02150402  0.94114431  0.08106218    -0.06100
C3034       C  0.01705503  0.94288979  0.04492722    -0.00200
C3035       C  0.01022461  0.91096501  0.02820733    -0.08700
C3036       C  0.01236650  0.87943047  0.04689243    -0.06100
C3037       C  0.01776757  0.87787992  0.08278445    -0.00200
C3038       C  0.02125343  0.90979241  0.10031918    -0.08700
C3039       C  0.02398663  0.91127338  0.13925707     0.61700
H3040       H  0.02677958  0.96466472  0.09437475     0.12400
H3041       H  0.00856908  0.85537290  0.03339283     0.12400
C3042       C  0.99759632  0.91004847  0.99146020     0.62000
F3043       F  0.02471747  0.94487561  0.15121458    -0.23200
F3044       F  0.05411376  0.89501544  0.14996022    -0.20500
F3045       F  0.99550167  0.89517706  0.15392545    -0.20200
F3046       F  0.02282947  0.92316333  0.96981333    -0.20300
F3047       F  0.96745697  0.92936544  0.98910857    -0.20600
F3048       F  0.98995138  0.87689175  0.98068237    -0.23300
C3049       C  0.11614121  0.92685334  0.00289818    -0.06100
C3050       C  0.14455577  0.94341410  0.98678502    -0.00200
C3051       C  0.13864963  0.97848640  0.97611345    -0.08700
C3052       C  0.10405127  0.99210009  0.97838383    -0.06100
C3053       C  0.07672108  0.97415491  0.99553030    -0.00200
C3054       C  0.08952645  0.94750446  0.01696225    -0.08700
C3055       C  0.09731385  0.95758888  0.05407576     0.61700
H3056       H  0.11915640  0.90073832  0.01233882     0.12400
H3057       H  0.09996289  0.01830368  0.97031303     0.12400
C3058       C  0.16643498  0.00297047  0.96301143     0.62000
F3059       F  0.09026739  0.93033891  0.07594602    -0.23200
F3060       F  0.07857447  0.98619681  0.06429824    -0.20500
F3061       F  0.13206495  0.96617263  0.05763750    -0.20200
F3062       F  0.19950668  0.98944740  0.96502280    -0.20300
F3063       F  0.16570933  0.03279333  0.98247921    -0.20600
F3064       F  0.15957842  0.01168746  0.92910432    -0.23300
C3065       C  0.96215757  0.00614146  0.13165100    -0.06100
C3066       C  0.93020660  0.98860847  0.13253352    -0.00200
C3067       C  0.91653838  0.97661501  0.10023748    -0.08700
C3068       C  0.93718130  0.97982777  0.07008849    -0.06100
C3069       C  0.96875912  0.99766089  0.06949024    -0.00200
C3070       C  0.98099423  0.01201732  0.10099269    -0.08700
C3071       C  0.01402176  0.03311250  0.10477383     0.61700
H3072       H  0.97247301  0.01652826  0.15537858     0.12400
H3073       H  0.92833964  0.96902624  0.04602369     0.12400
C3074       C  0.87990194  0.96233182  0.09569445     0.62000
F3075       F  0.00545063  0.06578992  0.11632471    -0.23200
F3076       F  0.03262474  0.03631995  0.07451915    -0.20500
F3077       F  0.03542464  0.01778030  0.12905540    -0.20200
F3078       F  0.85594069  0.98463170  0.10934472    -0.20300
F3079       F  0.87621736  0.93062708  0.11138709    -0.20600
F3080       F  0.87138852  0.95837085  0.06129556    -0.23300
C3081       C  0.00629703  0.13207946  0.95422517    -0.06100
C3082       C  0.97872179  0.13535734  0.93075804    -0.00200
C3083       C  0.95719551  0.10610282  0.92526148    -0.08700
C3084       C  0.96524610  0.07441642  0.94208576    -0.06100
C3085       C  0.99329719  0.07110217  0.96508079    -0.00200
C3086       C  0.01393332  0.10095015  0.97165422    -0.08700
C3087       C  0.04413848  0.10245772  0.99689611     0.61700
H3088       H  0.02275272  0.15426854  0.95883838     0.12400
H3089       H  0.94935961  0.05184696  0.93765447     0.12400
C3090       C  0.92485673  0.10863528  0.90315519     0.62000
F3091       F  0.03684845  0.12658281  0.02207873    -0.23200
F3092       F  0.07385353  0.11301213  0.97971326    -0.20500
F3093       F  0.05119466  0.07133043  0.01290369    -0.20200
F3094       F  0.93397768  0.11272085  0.86891056    -0.20300
F3095       F  0.90496218  0.13655233  0.91354323    -0.20600
F3096       F  0.90454208  0.07928658  0.90600925    -0.23300
loop_ 
_geom_bond_atom_site_label_1 
_geom_bond_atom_site_label_2 
_geom_bond_distance 
_geom_bond_site_symmetry_2 
_ccdc_geom_bond_type 
C1            C2   1.460   1_565  A
C1            C6   1.467   1_556  A
C1         C3053   1.556       .  S
C2            C3   1.436   1_455  A
C2         C3021   1.540       .  S
C3            C4   1.428   1_556  A
C3         C3085   1.512       .  S
C4            C5   1.428       .  A
C4         C3002   1.524       .  S
C5            C6   1.440   1_645  A
C5         C3069   1.513   1_545  S
C6         C3034   1.549       .  S
O7           C15   1.282       .  A
O7          Co27   2.036       .  S
O8           C16   1.282       .  A
O8          Co28   2.042       .  S
O9           C17   1.253       .  A
O9          Co29   1.980       .  S
O10          C18   1.254       .  A
O10         Co30   1.955       .  S
O11          C17   1.258       .  A
O11         Co28   1.998       .  S
O12          C18   1.262       .  A
O12         Co27   2.055       .  S
O13          C16   1.252   1_455  A
O13         Co30   1.931       .  S
O14          C15   1.256   1_655  A
O14         Co29   1.933       .  S
C15        C2906   1.455       .  S
C16        C2922   1.451       .  S
C17        C2986   1.498       .  S
C18        C2954   1.513       .  S
O19          C32   1.253       .  A
O19         Co27   1.931       .  S
O20          C33   1.262       .  A
O20         Co28   1.937       .  S
O21          C34   1.263       .  A
O21         Co29   2.045       .  S
O22          C35   1.269       .  A
O22         Co30   2.076       .  S
O23          C35   1.257   1_655  A
O23         Co28   1.973       .  S
O24          C34   1.254       .  A
O24         Co27   1.969   1_655  S
O25          C32   1.282       .  A
O25         Co30   2.016       .  S
O26          C33   1.279       .  A
O26         Co29   2.025       .  S
Co27         O31   2.121   1_455  S
Co28         O31   2.089       .  S
Co29         O31   2.111       .  S
Co30         O31   2.082   1_455  S
C32        C2890   1.450       .  S
C33        C2941   1.449       .  S
C34        C3082   1.508       .  S
C35        C2970   1.534       .  S
O36          C44   1.260       .  A
O36         Co56   1.951       .  S
O37          C45   1.275       .  A
O37         Co57   1.995       .  S
O38          C46   1.274       .  A
O38         Co58   2.001       .  S
O39          C47   1.263       .  A
O39         Co59   1.984       .  S
O40          C46   1.263       .  A
O40         Co57   2.017       .  S
O41          C47   1.270       .  A
O41         Co56   2.052       .  S
O42          C45   1.260       .  A
O42         Co59   1.957   1_565  S
O43          C44   1.268   1_565  A
O43         Co58   1.969       .  S
C44        C2797   1.464       .  S
C45        C2813   1.467       .  S
C46        C2842   1.514       .  S
C47        C2858   1.497       .  S
O48          C61   1.262       .  A
O48         Co56   1.956       .  S
O49          C62   1.265       .  A
O49         Co57   1.962       .  S
O50          C63   1.267       .  A
O50         Co58   2.038       .  S
O51          C64   1.269       .  A
O51         Co59   2.045       .  S
O52          C64   1.267   1_565  A
O52         Co57   1.981       .  S
O53          C63   1.274   1_545  A
O53         Co56   1.991       .  S
O54          C61   1.276       .  A
O54         Co59   1.997       .  S
O55          C62   1.270       .  A
O55         Co58   1.968       .  S
Co56         O60   2.092   1_545  S
Co57         O60   2.089       .  S
Co58         O60   2.102       .  S
Co59         O60   2.087   1_545  S
C61        C2778   1.470       .  S
C62        C2826   1.461       .  S
C63        C3066   1.519       .  S
C64        C2877   1.520       .  S
C65          C66   1.425   1_565  A
C65          C70   1.431   1_655  A
C65        C2698   1.522       .  S
C66          C67   1.425   1_655  A
C66        C2874   1.507       .  S
C67          C68   1.435       .  A
C67        C2746   1.516       .  S
C68          C69   1.444   1_545  A
C68        C2717   1.516       .  S
C69          C70   1.446       .  A
C69        C2733   1.529       .  S
C70        C2765   1.513   1_455  S
O71          C79   1.263       .  A
O71         Co91   1.972       .  S
O72          C80   1.285       .  A
O72         Co92   2.058       .  S
O73          C81   1.260       .  A
O73         Co93   1.977       .  S
O74          C82   1.248       .  A
O74         Co94   1.955       .  S
O75          C81   1.261       .  A
O75         Co92   2.028       .  S
O76          C82   1.265       .  A
O76         Co91   2.088       .  S
O77          C80   1.248   1_455  A
O77         Co94   1.928       .  S
O78          C79   1.275   1_655  A
O78         Co93   1.986       .  S
C79        C2586   1.483       .  S
C80        C2602   1.460       .  S
C81        C2682   1.521       .  S
C82        C2650   1.524       .  S
O83          C96   1.250       .  A
O83         Co91   1.915       .  S
O84          C97   1.254       .  A
O84         Co92   1.926       .  S
O85          C98   1.255       .  A
O85         Co93   2.008       .  S
O86          C99   1.267       .  A
O86         Co94   2.063       .  S
O87          C99   1.251   1_655  A
O87         Co92   1.977       .  S
O88          C98   1.264       .  A
O88         Co91   1.988   1_655  S
O89          C96   1.281       .  A
O89         Co94   2.039       .  S
O90          C97   1.287       .  A
O90         Co93   2.051       .  S
Co91         O95   2.116   1_455  S
Co92         O95   2.106       .  S
Co93         O95   2.112       .  S
Co94         O95   2.090   1_455  S
C96        C2621   1.438       .  S
C97        C2637   1.453       .  S
C98        C2762   1.515       .  S
C99        C2669   1.527       .  S
O100        C108   1.257       .  A
O100       Co120   1.953       .  S
O101        C109   1.281       .  A
O101       Co121   2.044       .  S
O102        C110   1.269       .  A
O102       Co122   1.987       .  S
O103        C111   1.255       .  A
O103       Co123   1.979       .  S
O104        C110   1.263       .  A
O104       Co121   2.019       .  S
O105        C111   1.276       .  A
O105       Co120   2.083       .  S
O106        C109   1.241       .  A
O106       Co123   1.915   1_556  S
O107        C108   1.268   1_556  A
O107       Co122   1.967       .  S
C108       C2477   1.465       .  S
C109       C2493   1.443       .  S
C110       C2538   1.512       .  S
C111       C2554   1.517       .  S
O112        C125   1.251       .  A
O112       Co120   1.927       .  S
O113        C126   1.258       .  A
O113       Co121   1.954       .  S
O114        C127   1.271       .  A
O114       Co122   2.046       .  S
O115        C128   1.276       .  A
O115       Co123   2.091       .  S
O116        C128   1.256   1_556  A
O116       Co121   1.971       .  S
O117        C127   1.267       .  A
O117       Co120   1.997   1_556  S
O118        C125   1.274       .  A
O118       Co123   1.980       .  S
O119        C126   1.276       .  A
O119       Co122   1.996       .  S
Co120       O124   2.103   1_554  S
Co121       O124   2.110       .  S
Co122       O124   2.100       .  S
Co123       O124   2.093   1_554  S
C125       C2506   1.438       .  S
C126       C2522   1.457       .  S
C127       C3050   1.519       .  S
C128       C2570   1.536       .  S
O129        C137   1.258   1_455  A
O129       Co149   1.919       .  S
O130        C138   1.221   1_655  A
O130       Co150   1.886       .  S
O131        C139   1.262       .  A
O131       Co151   2.054       .  S
O132        C140   1.278       .  A
O132       Co152   2.072       .  S
O133        C139   1.252       .  A
O133       Co150   1.967       .  S
O134        C140   1.270       .  A
O134       Co149   1.992       .  S
O135        C138   1.258       .  A
O135       Co152   2.025       .  S
O136        C137   1.292       .  A
O136       Co151   2.018       .  S
C137       C2829   1.452       .  S
C138       C2410   1.423       .  S
C139       C2442   1.519       .  S
C140       C2461   1.537       .  S
O141        C154   1.280       .  A
O141       Co149   1.989       .  S
O142        C155   1.266       .  A
O142       Co150   1.963       .  S
O143        C156   1.250       .  A
O143       Co151   1.955   1_455  S
O144        C157   1.272       .  A
O144       Co152   1.872       .  S
O145        C157   1.319   1_655  A
O145       Co150   2.170       .  S
O146        C156   1.269       .  A
O146       Co149   2.070       .  S
O147        C154   1.270       .  A
O147       Co152   1.964       .  S
O148        C155   1.257       .  A
O148       Co151   1.967       .  S
Co149       O153   2.074       .  S
Co150       O153   2.087   1_655  S
Co151       O153   2.079   1_655  S
Co152       O153   1.981       .  S
C154       C2474   1.467       .  S
C155       C2394   1.465       .  S
C156       C3037   1.523       .  S
C157       C2426   1.510       .  S
C158        C159   1.462       .  A
C158        C163   1.466       .  A
C158       C2346   1.554       .  S
C159        C160   1.469       .  A
C159       C2557   1.574       .  S
C160        C161   1.445       .  A
C160       C2458   1.538       .  S
C161        C162   1.433       .  A
C161       C2365   1.518       .  S
C162        C163   1.427       .  A
C162       C2378   1.528       .  S
C163       C2330   1.547       .  S
O164        C172   1.245       .  A
O164       Co184   1.927       .  S
O165        C173   1.252       .  A
O165       Co185   1.944       .  S
O166        C174   1.275       .  A
O166       Co186   2.074       .  S
O167        C175   1.271       .  A
O167       Co187   2.038       .  S
O168        C174   1.260       .  A
O168       Co185   1.983       .  S
O169        C175   1.259       .  A
O169       Co184   1.991       .  S
O170        C173   1.271       .  A
O170       Co187   2.000       .  S
O171        C172   1.270       .  A
O171       Co186   2.041       .  S
C172       C2618   1.456       .  S
C173       C2266   1.453       .  S
C174       C2317   1.538       .  S
C175       C2381   1.521       .  S
O176        C189   1.266       .  A
O176       Co184   2.008       .  S
O177        C190   1.270       .  A
O177       Co185   2.017       .  S
O178        C191   1.242       .  A
O178       Co186   1.952       .  S
O179        C192   1.266       .  A
O179       Co187   1.968       .  S
O180        C192   1.270       .  A
O180       Co185   2.048       .  S
O181        C191   1.276       .  A
O181       Co184   2.093       .  S
O182        C189   1.264       .  A
O182       Co187   1.980       .  S
O183        C190   1.243       .  A
O183       Co186   1.926       .  S
Co184       O188   2.109       .  S
Co185       O188   2.120       .  S
Co186       O188   2.102       .  S
Co187       O188   2.109       .  S
C189       C2234   1.483       .  S
C190       C2250   1.441       .  S
C191       C2298   1.509       .  S
C192       C2282   1.510       .  S
C193        C194   1.448       .  A
C193        C198   1.444       .  A
C193       C2189   1.545       .  S
C194        C195   1.445       .  A
C194       C2653   1.517       .  S
C195        C196   1.441       .  A
C195       C2314   1.541       .  S
C196        C197   1.439       .  A
C196       C2205   1.506       .  S
C197        C198   1.439       .  A
C197       C2218   1.545       .  S
C198       C2541   1.509       .  S
O199        C207   1.276       .  A
O199       Co219   2.012       .  S
O200        C208   1.271       .  A
O200       Co220   1.990       .  S
O201        C209   1.252       .  A
O201       Co221   1.973       .  S
O202        C210   1.267       .  A
O202       Co222   2.001       .  S
O203        C209   1.272       .  A
O203       Co220   2.083       .  S
O204        C210   1.268       .  A
O204       Co219   2.051       .  S
O205        C208   1.265       .  A
O205       Co222   1.965       .  S
O206        C207   1.247       .  A
O206       Co221   1.926       .  S
C207       C2490   1.436       .  S
C208       C2106   1.471       .  S
C209       C2138   1.538       .  S
C210       C2170   1.532       .  S
O211        C224   1.255       .  A
O211       Co219   1.928       .  S
O212        C225   1.253       .  A
O212       Co220   1.934       .  S
O213        C226   1.271       .  A
O213       Co221   2.057       .  S
O214        C227   1.268       .  A
O214       Co222   2.044       .  S
O215        C227   1.261       .  A
O215       Co220   1.985       .  S
O216        C226   1.259       .  A
O216       Co219   1.993       .  S
O217        C224   1.278       .  A
O217       Co222   2.019       .  S
O218        C225   1.277       .  A
O218       Co221   2.026       .  S
Co219       O223   2.115       .  S
Co220       O223   2.101       .  S
Co221       O223   2.089       .  S
Co222       O223   2.119       .  S
C224       C2090   1.443       .  S
C225       C2122   1.450       .  S
C226       C2221   1.534       .  S
C227       C2157   1.521       .  S
C228        C229   1.432       .  A
C228        C233   1.437       .  A
C228       C2058   1.527       .  S
C229        C230   1.437       .  A
C229       C2074   1.521       .  S
C230        C231   1.438       .  A
C230       C2989   1.507       .  S
C231        C232   1.435       .  A
C231       C2029   1.531       .  S
C232        C233   1.436       .  A
C232       C2010   1.524       .  S
C233       C2045   1.498       .  S
O234        C242   1.277       .  A
O234       Co254   2.019       .  S
O235        C243   1.276       .  A
O235       Co255   2.018       .  S
O236        C244   1.261       .  A
O236       Co256   1.984       .  S
O237        C245   1.260       .  A
O237       Co257   1.980       .  S
O238        C244   1.265       .  A
O238       Co255   2.043       .  S
O239        C245   1.267       .  A
O239       Co254   2.021       .  S
O240        C243   1.252       .  A
O240       Co257   1.936       .  S
O241        C242   1.256       .  A
O241       Co256   1.939       .  S
C242       C2925   1.455       .  S
C243       C2605   1.450       .  S
C244       C1962   1.512       .  S
C245       C1978   1.507       .  S
O246        C259   1.263       .  A
O246       Co254   1.958       .  S
O247        C260   1.249       .  A
O247       Co255   1.928       .  S
O248        C261   1.268       .  A
O248       Co256   2.048       .  S
O249        C262   1.273       .  A
O249       Co257   2.082       .  S
O250        C262   1.251       .  A
O250       Co255   1.953       .  S
O251        C261   1.263       .  A
O251       Co254   1.980       .  S
O252        C259   1.271       .  A
O252       Co257   1.979       .  S
O253        C260   1.276       .  A
O253       Co256   2.011       .  S
Co254       O258   2.109       .  S
Co255       O258   2.098       .  S
Co256       O258   2.091       .  S
Co257       O258   2.100       .  S
C259       C1946   1.460       .  S
C260       C1930   1.436       .  S
C261       C2077   1.518       .  S
C262       C1994   1.516       .  S
O263        C271   1.257   1_455  A
O263       Co283   1.949       .  S
O264        C272   1.271   1_655  A
O264       Co284   1.970       .  S
O265        C273   1.259       .  A
O265       Co285   2.017       .  S
O266        C274   1.274       .  A
O266       Co286   2.085       .  S
O267        C273   1.273       .  A
O267       Co284   2.008       .  S
O268        C274   1.259       .  A
O268       Co283   1.982       .  S
O269        C272   1.264       .  A
O269       Co286   1.973       .  S
O270        C271   1.282       .  A
O270       Co285   2.010       .  S
C271       C2781   1.467       .  S
C272       C1866   1.477       .  S
C273       C1901   1.528       .  S
C274       C1917   1.534       .  S
O275        C288   1.281       .  A
O275       Co283   2.037       .  S
O276        C289   1.277       .  A
O276       Co284   2.002       .  S
O277        C290   1.261   1_655  A
O277       Co285   1.975       .  S
O278        C291   1.259       .  A
O278       Co286   1.983   1_655  S
O279        C291   1.264       .  A
O279       Co284   2.029       .  S
O280        C290   1.267       .  A
O280       Co283   2.047       .  S
O281        C288   1.248       .  A
O281       Co286   1.921       .  S
O282        C289   1.267       .  A
O282       Co285   1.969       .  S
Co283       O287   2.122   1_455  S
Co284       O287   2.128       .  S
Co285       O287   2.083       .  S
Co286       O287   2.077   1_455  S
C288       C1853   1.441       .  S
C289       C1834   1.472       .  S
C290       C2749   1.513       .  S
C291       C1882   1.502       .  S
C292        C293   1.455       .  A
C292        C297   1.446       .  A
C292       C1802   1.567       .  S
C293        C294   1.441       .  A
C293       C1773   1.544       .  S
C294        C295   1.438       .  A
C294       C1914   1.531       .  S
C295        C296   1.439       .  A
C295       C1754   1.522       .  S
C296        C297   1.437       .  A
C296       C1818   1.519       .  S
C297       C1789   1.528       .  S
O298        C306   1.267       .  A
O298       Co318   1.976   1_556  S
O299        C307   1.249   1_556  A
O299       Co319   1.941       .  S
O300        C308   1.274       .  A
O300       Co320   2.070       .  S
O301        C309   1.273       .  A
O301       Co321   2.048       .  S
O302        C308   1.251       .  A
O302       Co319   1.966       .  S
O303        C309   1.260       .  A
O303       Co318   1.974       .  S
O304        C307   1.275       .  A
O304       Co321   1.994       .  S
O305        C306   1.254       .  A
O305       Co320   1.940       .  S
C306       C2893   1.465       .  S
C307       C1693   1.451       .  S
C308       C1741   1.518       .  S
C309       C1821   1.522       .  S
O310        C323   1.274       .  A
O310       Co318   2.024       .  S
O311        C324   1.272       .  A
O311       Co319   2.021       .  S
O312        C325   1.272       .  A
O312       Co320   2.005   1_554  S
O313        C326   1.267       .  A
O313       Co321   1.997   1_556  S
O314        C326   1.276       .  A
O314       Co319   2.072       .  S
O315        C325   1.264       .  A
O315       Co318   2.022       .  S
O316        C323   1.262       .  A
O316       Co321   1.950       .  S
O317        C324   1.254       .  A
O317       Co320   1.926       .  S
Co318       O322   2.119   1_554  S
Co319       O322   2.119       .  S
Co320       O322   2.091       .  S
Co321       O322   2.089   1_554  S
C323       C1677   1.459       .  S
C324       C1658   1.440       .  S
C325       C1709   1.523       .  S
C326       C1722   1.540       .  S
C327        C328   1.441       .  A
C327        C332   1.441       .  A
C327       C1594   1.532       .  S
C328        C329   1.442       .  A
C328       C1610   1.523       .  S
C329        C330   1.436       .  A
C329       C2957   1.525       .  S
C330        C331   1.439       .  A
C330       C1738   1.520       .  S
C331        C332   1.444       .  A
C331       C1629   1.530       .  S
C332       C1645   1.517       .  S
O333        C341   1.284       .  A
O333       Co353   2.025       .  S
O334        C342   1.283       .  A
O334       Co354   2.032       .  S
O335        C343   1.263       .  A
O335       Co355   1.992       .  S
O336        C344   1.251       .  A
O336       Co356   1.959       .  S
O337        C343   1.262       .  A
O337       Co354   2.041       .  S
O338        C344   1.266       .  A
O338       Co353   2.075       .  S
O339        C342   1.249       .  A
O339       Co356   1.907       .  S
O340        C341   1.263       .  A
O340       Co355   1.949       .  S
C341       C1498   1.467       .  S
C342       C1530   1.430       .  S
C343       C1581   1.523       .  S
C344       C1562   1.526       .  S
O345        C358   1.255       .  A
O345       Co353   1.939       .  S
O346        C359   1.258       .  A
O346       Co354   1.933       .  S
O347        C360   1.261       .  A
O347       Co355   2.035       .  S
O348        C361   1.263       .  A
O348       Co356   2.044       .  S
O349        C361   1.253       .  A
O349       Co354   1.976       .  S
O350        C360   1.251       .  A
O350       Co353   1.963       .  S
O351        C358   1.280       .  A
O351       Co356   2.025       .  S
O352        C359   1.280       .  A
O352       Co355   2.022       .  S
Co353       O357   2.104       .  S
Co354       O357   2.104       .  S
Co355       O357   2.131       .  S
Co356       O357   2.095       .  S
C358       C1549   1.456       .  S
C359       C1514   1.448       .  S
C360       C2042   1.504       .  S
C361       C1642   1.523       .  S
O362        C370   1.270       .  A
O362       Co382   1.972   1_565  S
O363        C371   1.254   1_565  A
O363       Co383   1.950       .  S
O364        C372   1.273       .  A
O364       Co384   2.066       .  S
O365        C373   1.282       .  A
O365       Co385   2.079       .  S
O366        C372   1.250       .  A
O366       Co383   1.951       .  S
O367        C373   1.271       .  A
O367       Co382   2.002       .  S
O368        C371   1.265       .  A
O368       Co385   1.963       .  S
O369        C370   1.261       .  A
O369       Co384   1.953       .  S
C370       C2509   1.458       .  S
C371       C1453   1.446       .  S
C372       C2349   1.483       .  S
C373       C1805   1.530       .  S
O374        C387   1.269       .  A
O374       Co382   1.985       .  S
O375        C388   1.277       .  A
O375       Co383   2.029       .  S
O376        C389   1.274   1_565  A
O376       Co384   2.002       .  S
O377        C390   1.275   1_545  A
O377       Co385   2.013       .  S
O378        C390   1.270       .  A
O378       Co383   2.025       .  S
O379        C389   1.267       .  A
O379       Co382   2.033       .  S
O380        C387   1.261       .  A
O380       Co385   1.948       .  S
O381        C388   1.254       .  A
O381       Co384   1.938       .  S
Co382       O386   2.104   1_545  S
Co383       O386   2.091       .  S
Co384       O386   2.098       .  S
Co385       O386   2.095   1_545  S
C387       C1434   1.459       .  S
C388       C1421   1.452       .  S
C389       C1469   1.525       .  S
C390       C1482   1.521       .  S
C391        C392   1.440       .  A
C391        C396   1.441       .  A
C391       C1578   1.530       .  S
C392        C393   1.449   1_545  A
C392       C1373   1.538       .  S
C393        C394   1.441       .  A
C393       C1485   1.519       .  S
C394        C395   1.436       .  A
C394       C1402   1.530       .  S
C395        C396   1.438   1_565  A
C395       C1354   1.524       .  S
C396       C1386   1.515       .  S
O397        C405   1.248       .  A
O397       Co417   1.920       .  S
O398        C406   1.261       .  A
O398       Co418   1.939       .  S
O399        C407   1.256       .  A
O399       Co419   2.026       .  S
O400        C408   1.265       .  A
O400       Co420   2.056       .  S
O401        C407   1.260       .  A
O401       Co418   1.979       .  S
O402        C408   1.252       .  A
O402       Co417   1.977       .  S
O403        C406   1.281       .  A
O403       Co420   2.027       .  S
O404        C405   1.289       .  A
O404       Co419   2.064       .  S
C405       C2269   1.453       .  S
C406       C1306   1.452       .  S
C407       C1322   1.508       .  S
C408       C1405   1.523       .  S
O409        C422   1.281       .  A
O409       Co417   2.025       .  S
O410        C423   1.280       .  A
O410       Co418   2.025       .  S
O411        C424   1.251       .  A
O411       Co419   1.971       .  S
O412        C425   1.254       .  A
O412       Co420   1.972       .  S
O413        C425   1.263       .  A
O413       Co418   2.041       .  S
O414        C424   1.267       .  A
O414       Co417   2.069       .  S
O415        C422   1.257       .  A
O415       Co420   1.938       .  S
O416        C423   1.259       .  A
O416       Co419   1.940       .  S
Co417       O421   2.102       .  S
Co418       O421   2.105       .  S
Co419       O421   2.101       .  S
Co420       O421   2.103       .  S
C422       C1418   1.448       .  S
C423       C1290   1.451       .  S
C424       C2333   1.529       .  S
C425       C1341   1.514       .  S
O426        C434   1.254       .  A
O426       Co446   1.922       .  S
O427        C435   1.253       .  A
O427       Co447   1.926       .  S
O428        C436   1.260       .  A
O428       Co448   2.043       .  S
O429        C437   1.259       .  A
O429       Co449   2.038       .  S
O430        C436   1.254       .  A
O430       Co447   1.967   1_565  S
O431        C437   1.255       .  A
O431       Co446   1.977   1_545  S
O432        C435   1.283       .  A
O432       Co449   2.040       .  S
O433        C434   1.283       .  A
O433       Co448   2.035       .  S
C434       C2093   1.438       .  S
C435       C1517   1.443       .  S
C436       C1274   1.512       .  S
C437       C1389   1.511       .  S
O438        C451   1.282       .  A
O438       Co446   2.026       .  S
O439        C452   1.285       .  A
O439       Co447   2.020       .  S
O440        C453   1.254       .  A
O440       Co448   1.975       .  S
O441        C454   1.249       .  A
O441       Co449   1.962       .  S
O442        C454   1.265       .  A
O442       Co447   2.063       .  S
O443        C453   1.263       .  A
O443       Co446   2.047       .  S
O444        C451   1.254   1_545  A
O444       Co449   1.920       .  S
O445        C452   1.259   1_565  A
O445       Co448   1.938       .  S
Co446       O450   2.091   1_565  S
Co447       O450   2.087       .  S
Co448       O450   2.114   1_565  S
Co449       O450   2.096       .  S
C451       C1242   1.437       .  S
C452       C1226   1.457       .  S
C453       C1258   1.517       .  S
C454       C2013   1.523       .  S
C455        C456   1.444   1_545  A
C455        C460   1.447       .  A
C455       C1466   1.519       .  S
C456        C457   1.431   1_554  A
C456       C2573   1.524       .  S
C457        C458   1.436       .  A
C457       C2173   1.534       .  S
C458        C459   1.447   1_565  A
C458       C1277   1.516       .  S
C459        C460   1.448   1_556  A
C459       C1197   1.527       .  S
C460       C1210   1.543       .  S
O461        C469   1.270       .  A
O461       Co481   1.969       .  S
O462        C470   1.257       .  A
O462       Co482   1.938       .  S
O463        C471   1.271       .  A
O463       Co483   2.071       .  S
O464        C472   1.271       .  A
O464       Co484   2.056       .  S
O465        C471   1.253       .  A
O465       Co482   1.968       .  S
O466        C472   1.270       .  A
O466       Co481   1.994       .  S
O467        C470   1.277       .  A
O467       Co484   2.005       .  S
O468        C469   1.267       .  A
O468       Co483   1.956       .  S
C469       C1690   1.460       .  S
C470       C1149   1.438       .  S
C471       C1165   1.524       .  S
C472       C1213   1.531       .  S
O473        C486   1.280       .  A
O473       Co481   2.003       .  S
O474        C487   1.281       .  A
O474       Co482   2.035       .  S
O475        C488   1.267       .  A
O475       Co483   1.994       .  S
O476        C489   1.256       .  A
O476       Co484   1.965       .  S
O477        C489   1.258       .  A
O477       Co482   2.018       .  S
O478        C488   1.264       .  A
O478       Co481   2.029       .  S
O479        C486   1.255       .  A
O479       Co484   1.936       .  S
O480        C487   1.255       .  A
O480       Co483   1.922       .  S
Co481       O485   2.092       .  S
Co482       O485   2.094       .  S
Co483       O485   2.093       .  S
Co484       O485   2.092       .  S
C486       C1437   1.455       .  S
C487       C1133   1.444       .  S
C488       C1786   1.520       .  S
C489       C1181   1.489       .  S
O490        C498   1.269       .  A
O490       Co510   2.006       .  S
O491        C499   1.269       .  A
O491       Co511   2.018       .  S
O492        C500   1.262       .  A
O492       Co512   1.974       .  S
O493        C501   1.274       .  A
O493       Co513   2.011       .  S
O494        C500   1.273       .  A
O494       Co511   2.066       .  S
O495        C501   1.277       .  A
O495       Co510   2.054       .  S
O496        C499   1.254       .  A
O496       Co513   1.923       .  S
O497        C498   1.250       .  A
O497       Co512   1.936       .  S
C498       C1850   1.448       .  S
C499       C1533   1.453       .  S
C500       C1597   1.517       .  S
C501       C1770   1.535       .  S
O502        C515   1.257       .  A
O502       Co510   1.956       .  S
O503        C516   1.249       .  A
O503       Co511   1.938       .  S
O504        C517   1.276       .  A
O504       Co512   2.069       .  S
O505        C518   1.279       .  A
O505       Co513   2.086       .  S
O506        C518   1.257       .  A
O506       Co511   1.982       .  S
O507        C517   1.257       .  A
O507       Co510   1.966       .  S
O508        C515   1.244       .  A
O508       Co513   1.917       .  S
O509        C516   1.267       .  A
O509       Co512   1.995       .  S
Co510       O514   2.111       .  S
Co511       O514   2.126       .  S
Co512       O514   2.105       .  S
Co513       O514   2.089       .  S
C515       C1450   1.444       .  S
C516       C1117   1.443       .  S
C517       C2714   1.518       .  S
C518       C1370   1.532       .  S
C519        C520   1.435       .  A
C519        C524   1.437       .  A
C519       C2845   1.498       .  S
C520        C521   1.434       .  A
C520       C1066   1.539       .  S
C521        C522   1.442       .  A
C521       C1338   1.514       .  S
C522        C523   1.436       .  A
C522       C1098   1.509       .  S
C523        C524   1.427       .  A
C523       C1085   1.519       .  S
C524       C2445   1.527       .  S
O525        C533   1.279       .  A
O525       Co545   2.024       .  S
O526        C534   1.277       .  A
O526       Co546   2.013       .  S
O527        C535   1.263       .  A
O527       Co547   1.993       .  S
O528        C536   1.255       .  A
O528       Co548   1.980       .  S
O529        C535   1.269       .  A
O529       Co546   2.065       .  S
O530        C536   1.268       .  A
O530       Co545   2.057       .  S
O531        C534   1.254       .  A
O531       Co548   1.929       .  S
O532        C533   1.258       .  A
O532       Co547   1.936       .  S
C533       C1293   1.451       .  S
C534       C1130   1.439       .  S
C535       C1021   1.536       .  S
C536       C1034   1.525       .  S
O537        C550   1.254       .  A
O537       Co545   1.935       .  S
O538        C551   1.256       .  A
O538       Co546   1.938       .  S
O539        C552   1.265       .  A
O539       Co547   2.045       .  S
O540        C553   1.267       .  A
O540       Co548   2.049       .  S
O541        C553   1.258       .  A
O541       Co546   1.985       .  S
O542        C552   1.253       .  A
O542       Co545   1.972       .  S
O543        C550   1.279       .  A
O543       Co548   2.039       .  S
O544        C551   1.278       .  A
O544       Co547   2.017       .  S
Co545       O549   2.102       .  S
Co546       O549   2.111       .  S
Co547       O549   2.117       .  S
Co548       O549   2.111       .  S
C550        C989   1.462       .  S
C551       C1005   1.449       .  S
C552       C1101   1.513       .  S
C553       C1050   1.526       .  S
C554        C555   1.456       .  A
C554        C559   1.433       .  A
C554       C1898   1.528       .  S
C555        C556   1.454       .  A
C555       C2861   1.551       .  S
C556        C557   1.434       .  A
C556        C954   1.545       .  S
C557        C558   1.424       .  A
C557       C1178   1.490       .  S
C558        C559   1.422       .  A
C558       C1053   1.533       .  S
C559        C970   1.500       .  S
C560        C561   1.449       .  A
C560        C565   1.434       .  A
C560       C2685   1.506       .  S
C561        C562   1.454       .  A
C561       C1997   1.558       .  S
C562        C563   1.448       .  A
C562        C938   1.524       .  S
C563        C564   1.434       .  A
C563       C2154   1.521       .  S
C564        C565   1.427       .  A
C564       C1261   1.517       .  S
C565        C922   1.532       .  S
O566        C574   1.268   1_545  A
O566       Co586   1.965       .  S
O567        C575   1.253   1_565  A
O567       Co587   1.927       .  S
O568        C576   1.270       .  A
O568       Co588   2.054       .  S
O569        C577   1.264       .  A
O569       Co589   2.041       .  S
O570        C576   1.259       .  A
O570       Co587   1.989       .  S
O571        C577   1.263       .  A
O571       Co586   1.990       .  S
O572        C575   1.283       .  A
O572       Co589   2.033       .  S
O573        C574   1.262       .  A
O573       Co588   1.950       .  S
C574       C2525   1.461       .  S
C575       C1114   1.441       .  S
C576       C2186   1.526       .  S
C577       C1613   1.522       .  S
O578        C591   1.284       .  A
O578       Co586   2.036       .  S
O579        C592   1.281       .  A
O579       Co587   2.007       .  S
O580        C593   1.276   1_565  A
O580       Co588   2.019       .  S
O581        C594   1.257   1_545  A
O581       Co589   1.983       .  S
O582        C594   1.270       .  A
O582       Co587   2.067       .  S
O583        C593   1.259       .  A
O583       Co586   2.012       .  S
O584        C591   1.260       .  A
O584       Co589   1.946       .  S
O585        C592   1.268       .  A
O585       Co588   1.950       .  S
Co586       O590   2.105       .  S
Co587       O590   2.097   1_565  S
Co588       O590   2.096   1_565  S
Co589       O590   2.091       .  S
C591       C2909   1.454       .  S
C592       C2589   1.461       .  S
C593       C3018   1.522       .  S
C594       C2730   1.535       .  S
O595        C603   1.256       .  A
O595       Co615   1.917       .  S
O596        C604   1.233       .  A
O596       Co616   1.938       .  S
O597        C605   1.262       .  A
O597       Co617   2.032       .  S
O598        C606   1.272       .  A
O598       Co618   2.022       .  S
O599        C605   1.255       .  A
O599       Co616   1.977       .  S
O600        C606   1.267       .  A
O600       Co615   1.982       .  S
O601        C604   1.262       .  A
O601       Co618   2.059       .  S
O602        C603   1.285       .  A
O602       Co617   2.031       .  S
C603       C1933   1.435       .  S
C604        C986   1.468       .  S
C605        C906   1.514       .  S
C606        C890   1.505       .  S
O607        C620   1.262       .  A
O607       Co615   1.961       .  S
O608        C621   1.271       .  A
O608       Co616   2.007       .  S
O609        C622   1.248       .  A
O609       Co617   1.965       .  S
O610        C623   1.279       .  A
O610       Co618   1.887       .  S
O611        C623   1.314       .  A
O611       Co616   2.150       .  S
O612        C622   1.269       .  A
O612       Co615   2.071       .  S
O613        C620   1.281       .  A
O613       Co618   2.002       .  S
O614        C621   1.255       .  A
O614       Co617   1.950       .  S
Co615       O619   2.062       .  S
Co616       O619   2.096       .  S
Co617       O619   2.079       .  S
Co618       O619   2.002       .  S
C620       C1501   1.491       .  S
C621       C1837   1.463       .  S
C622       C2061   1.516       .  S
C623        C973   1.501       .  S
C624        C625   1.453       .  A
C624        C629   1.452       .  A
C624       C2301   1.568       .  S
C625        C626   1.428   1_455  A
C625       C2666   1.527       .  S
C626        C627   1.422       .  A
C626       C1965   1.517       .  S
C627        C628   1.431       .  A
C627        C909   1.511       .  S
C628        C629   1.457   1_655  A
C628       C1885   1.526       .  S
C629        C874   1.561       .  S
O630        C638   1.273       .  A
O630       Co650   2.008       .  S
O631        C639   1.275       .  A
O631       Co651   1.989       .  S
O632        C640   1.276       .  A
O632       Co652   2.014       .  S
O633        C641   1.258       .  A
O633       Co653   1.979       .  S
O634        C640   1.271       .  A
O634       Co651   2.029       .  S
O635        C641   1.271       .  A
O635       Co650   2.048       .  S
O636        C639   1.260   1_554  A
O636       Co653   1.966       .  S
O637        C638   1.259       .  A
O637       Co652   1.953   1_554  S
C638       C2397   1.475       .  S
C639       C2109   1.468       .  S
C640        C941   1.526       .  S
C641       C1082   1.517       .  S
O642        C655   1.253       .  A
O642       Co650   1.937       .  S
O643        C656   1.274       .  A
O643       Co651   1.988       .  S
O644        C657   1.280       .  A
O644       Co652   2.089       .  S
O645        C658   1.270       .  A
O645       Co653   2.040       .  S
O646        C658   1.275   1_556  A
O646       Co651   1.998       .  S
O647        C657   1.258   1_554  A
O647       Co650   1.982       .  S
O648        C655   1.276       .  A
O648       Co653   2.030       .  S
O649        C656   1.252       .  A
O649       Co652   1.943       .  S
Co650       O654   2.099       .  S
Co651       O654   2.102   1_556  S
Co652       O654   2.105   1_556  S
Co653       O654   2.112       .  S
C655       C1002   1.453       .  S
C656       C1949   1.471       .  S
C657        C842   1.526       .  S
C658        C858   1.532       .  S
C659        C660   1.438       .  A
C659        C664   1.440       .  A
C659        C826   1.517       .  S
C660        C661   1.438   1_556  A
C660       C2141   1.528       .  S
C661        C662   1.440       .  A
C661        C861   1.520       .  S
C662        C663   1.442       .  A
C662       C1018   1.538       .  S
C663        C664   1.443   1_554  A
C663       C1162   1.508       .  S
C664       C1725   1.539       .  S
O665        C673   1.253   1_554  A
O665       Co685   1.919       .  S
O666        C674   1.248       .  A
O666       Co686   1.914   1_554  S
O667        C675   1.266       .  A
O667       Co687   2.044       .  S
O668        C676   1.267       .  A
O668       Co688   2.056       .  S
O669        C675   1.261       .  A
O669       Co686   1.985       .  S
O670        C676   1.255       .  A
O670       Co685   1.967       .  S
O671        C674   1.280       .  A
O671       Co688   2.036       .  S
O672        C673   1.281       .  A
O672       Co687   2.034       .  S
C673       C2938   1.439       .  S
C674       C1146   1.438       .  S
C675       C2026   1.529       .  S
C676        C957   1.514       .  S
O677        C690   1.279       .  A
O677       Co685   2.004       .  S
O678        C691   1.263       .  A
O678       Co686   1.966       .  S
O679        C692   1.260   1_556  A
O679       Co687   1.987       .  S
O680        C693   1.251       .  A
O680       Co688   1.971   1_556  S
O681        C693   1.272       .  A
O681       Co686   2.076       .  S
O682        C692   1.268       .  A
O682       Co685   2.044       .  S
O683        C690   1.253       .  A
O683       Co688   1.938       .  S
O684        C691   1.268       .  A
O684       Co687   1.965       .  S
Co685       O689   2.091       .  S
Co686       O689   2.096   1_556  S
Co687       O689   2.119   1_556  S
Co688       O689   2.114       .  S
C690       C2794   1.451       .  S
C691       C1229   1.466       .  S
C692       C3005   1.528       .  S
C693       C1194   1.525       .  S
O694        C702   1.275       .  A
O694       Co714   2.014       .  S
O695        C703   1.274       .  A
O695       Co715   2.022       .  S
O696        C704   1.266       .  A
O696       Co716   1.988       .  S
O697        C705   1.247       .  A
O697       Co717   1.952       .  S
O698        C704   1.269       .  A
O698       Co715   2.053       .  S
O699        C705   1.270       .  A
O699       Co714   2.074       .  S
O700        C703   1.250       .  A
O700       Co717   1.916       .  S
O701        C702   1.249       .  A
O701       Co716   1.924       .  S
C702       C2253   1.444       .  S
C703       C1661   1.433       .  S
C704       C1626   1.528       .  S
C705       C2202   1.513       .  S
O706        C719   1.250       .  A
O706       Co714   1.931       .  S
O707        C720   1.268       .  A
O707       Co715   1.972       .  S
O708        C721   1.275       .  A
O708       Co716   2.090       .  S
O709        C722   1.265       .  A
O709       Co717   2.032       .  S
O710        C722   1.266       .  A
O710       Co715   1.986       .  S
O711        C721   1.257       .  A
O711       Co714   1.971       .  S
O712        C719   1.273       .  A
O712       Co717   2.014       .  S
O713        C720   1.251       .  A
O713       Co716   1.953       .  S
Co714       O718   2.112       .  S
Co715       O718   2.119       .  S
Co716       O718   2.102       .  S
Co717       O718   2.084       .  S
C719       C2125   1.444       .  S
C720       C1546   1.463       .  S
C721        C810   1.531       .  S
C722        C829   1.510       .  S
O723        C731   1.280       .  A
O723       Co743   2.005       .  S
O724        C732   1.279       .  A
O724       Co744   2.025       .  S
O725        C733   1.254       .  A
O725       Co745   1.965       .  S
O726        C734   1.253       .  A
O726       Co746   1.979       .  S
O727        C733   1.266       .  A
O727       Co744   2.056       .  S
O728        C734   1.265       .  A
O728       Co743   2.042       .  S
O729        C732   1.252       .  A
O729       Co746   1.923       .  S
O730        C731   1.252       .  A
O730       Co745   1.939       .  S
C731       C2810   1.455       .  S
C732       C1245   1.441       .  S
C733       C1357   1.514       .  S
C734       C2701   1.524       .  S
O735        C748   1.260       .  A
O735       Co743   1.942       .  S
O736        C749   1.256       .  A
O736       Co744   1.940       .  S
O737        C750   1.268       .  A
O737       Co745   2.061       .  S
O738        C751   1.268       .  A
O738       Co746   2.065       .  S
O739        C751   1.254       .  A
O739       Co744   1.975       .  S
O740        C750   1.259       .  A
O740       Co743   1.967       .  S
O741        C748   1.278       .  A
O741       Co746   2.039       .  S
O742        C749   1.278       .  A
O742       Co745   2.024       .  S
Co743       O747   2.081       .  S
Co744       O747   2.102       .  S
Co745       O747   2.124       .  S
Co746       O747   2.126       .  S
C748       C2634   1.466       .  S
C749       C1309   1.453       .  S
C750       C1069   1.518       .  S
C751        C925   1.531       .  S
O752        C760   1.259       .  A
O752       Co772   1.936       .  S
O753        C761   1.234       .  A
O753       Co773   1.965       .  S
O754        C762   1.270       .  A
O754       Co774   2.051       .  S
O755        C763   1.291       .  A
O755       Co775   2.113       .  S
O756        C762   1.257       .  A
O756       Co773   1.978       .  S
O757        C763   1.252       .  A
O757       Co772   1.951       .  S
O758        C761   1.242       .  A
O758       Co775   1.953       .  S
O759        C760   1.275       .  A
O759       Co774   2.010       .  S
C760       C2413   1.452       .  S
C761       C1869   1.467       .  S
C762        C797   1.498       .  S
C763        C877   1.514       .  S
O764        C777   1.276       .  A
O764       Co772   2.031       .  S
O765        C778   1.262       .  A
O765       Co773   2.000       .  S
O766        C779   1.249       .  A
O766       Co774   1.977       .  S
O767        C780   1.280       .  A
O767       Co775   1.884       .  S
O768        C780   1.323       .  A
O768       Co773   2.184       .  S
O769        C779   1.264       .  A
O769       Co772   2.032       .  S
O770        C777   1.259       .  A
O770       Co775   1.941       .  S
O771        C778   1.246       .  A
O771       Co774   1.930       .  S
Co772       O776   2.079       .  S
Co773       O776   2.145       .  S
Co774       O776   2.078       .  S
Co775       O776   1.993       .  S
C777       C2237   1.460       .  S
C778       C1674   1.440       .  S
C779       C2362   1.515       .  S
C780       C1757   1.515       .  S
C781        C782   1.430       .  A
C781        C786   1.430       .  A
C781        C813   1.523       .  S
C782        C783   1.434       .  A
C782       C2285   1.505       .  S
C783        C784   1.430       .  A
C783       C1325   1.516       .  S
C784        C785   1.441       .  A
C784       C1037   1.532       .  S
C785        C786   1.445       .  A
C785        C893   1.505       .  S
C786       C1565   1.523       .  S
C787        C788   1.435   1_655  A
C787        C792   1.446       .  A
C787       C1981   1.508       .  S
C788        C789   1.433   1_556  A
C788       C2973   1.528       .  S
C789        C790   1.445       .  A
C789       C1706   1.526       .  S
C790        C791   1.457   1_455  A
C790        C794   1.558       .  S
C791        C792   1.452   1_554  A
C791       C2429   1.545   1_655  S
C792        C845   1.540       .  S
C793        C794   1.418       .  A
C793        C798   1.421       .  A
C793        H800   1.077   1_455  S
C794        C795   1.417       .  A
C795        C796   1.410       .  A
C795        C802   1.517       .  S
C796        C797   1.406       .  A
C796        H801   1.084       .  S
C797        C798   1.418       .  A
C798        C799   1.506       .  S
C799        F803   1.383   1_455  S
C799        F804   1.382       .  S
C799        F805   1.382       .  S
C802        F806   1.382       .  S
C802        F807   1.373       .  S
C802        F808   1.386       .  S
C809        C810   1.411       .  A
C809        C814   1.413       .  A
C809        H816   1.084       .  S
C810        C811   1.429       .  A
C811        C812   1.427       .  A
C811        C818   1.511       .  S
C812        C813   1.407       .  A
C812        H817   1.080       .  S
C813        C814   1.424       .  A
C814        C815   1.518       .  S
C815        F819   1.385       .  S
C815        F820   1.382       .  S
C815        F821   1.376       .  S
C818        F822   1.378       .  S
C818        F823   1.380       .  S
C818        F824   1.385       .  S
C825        C826   1.409       .  A
C825        C830   1.418       .  A
C825        H832   1.083       .  S
C826        C827   1.428       .  A
C827        C828   1.412       .  A
C827        C834   1.519       .  S
C828        C829   1.404       .  A
C828        H833   1.084       .  S
C829        C830   1.428       .  A
C830        C831   1.520       .  S
C831        F835   1.383       .  S
C831        F836   1.381       .  S
C831        F837   1.380       .  S
C834        F838   1.384       .  S
C834        F839   1.377       .  S
C834        F840   1.383       .  S
C841        C842   1.402       .  A
C841        C846   1.419       .  A
C841        H848   1.074       .  S
C842        C843   1.425   1_556  A
C843        C844   1.426       .  A
C843        C850   1.519       .  S
C844        C845   1.415   1_554  A
C844        H849   1.083       .  S
C845        C846   1.437       .  A
C846        C847   1.515       .  S
C847        F851   1.380       .  S
C847        F852   1.376       .  S
C847        F853   1.385       .  S
C850        F854   1.383       .  S
C850        F855   1.381       .  S
C850        F856   1.385       .  S
C857        C858   1.410   1_556  A
C857        C862   1.419       .  A
C857        H864   1.083       .  S
C858        C859   1.438       .  A
C859        C860   1.420       .  A
C859        C866   1.520       .  S
C860        C861   1.401       .  A
C860        H865   1.080       .  S
C861        C862   1.427   1_554  A
C862        C863   1.519       .  S
C863        F867   1.384       .  S
C863        F868   1.379       .  S
C863        F869   1.383   1_556  S
C866        F870   1.382       .  S
C866        F871   1.383       .  S
C866        F872   1.385       .  S
C873        C874   1.413       .  A
C873        C878   1.419       .  A
C873        H880   1.078       .  S
C874        C875   1.424       .  A
C875        C876   1.419       .  A
C875        C882   1.511   1_455  S
C876        C877   1.409       .  A
C876        H881   1.081       .  S
C877        C878   1.426       .  A
C878        C879   1.514       .  S
C879        F883   1.385       .  S
C879        F884   1.382       .  S
C879        F885   1.378       .  S
C882        F886   1.385       .  S
C882        F887   1.378       .  S
C882        F888   1.381       .  S
C889        C890   1.405       .  A
C889        C894   1.408       .  A
C889        H896   1.085       .  S
C890        C891   1.431       .  A
C891        C892   1.414       .  A
C891        C898   1.526       .  S
C892        C893   1.405       .  A
C892        H897   1.082       .  S
C893        C894   1.421       .  A
C894        C895   1.510       .  S
C895        F899   1.382       .  S
C895        F900   1.371       .  S
C895        F901   1.383       .  S
C898        F902   1.378       .  S
C898        F903   1.382       .  S
C898        F904   1.385       .  S
C905        C906   1.407       .  A
C905        C910   1.407       .  A
C905        H912   1.083       .  S
C906        C907   1.427       .  A
C907        C908   1.416       .  A
C907        C914   1.514       .  S
C908        C909   1.405       .  A
C908        H913   1.076       .  S
C909        C910   1.423       .  A
C910        C911   1.518       .  S
C911        F915   1.384       .  S
C911        F916   1.374       .  S
C911        F917   1.383       .  S
C914        F918   1.378       .  S
C914        F919   1.383       .  S
C914        F920   1.385       .  S
C921        C922   1.407       .  A
C921        C926   1.420       .  A
C921        H928   1.082       .  S
C922        C923   1.424       .  A
C923        C924   1.425       .  A
C923        C930   1.515       .  S
C924        C925   1.415       .  A
C924        H929   1.084       .  S
C925        C926   1.431       .  A
C926        C927   1.521       .  S
C927        F931   1.384       .  S
C927        F932   1.383       .  S
C927        F933   1.383       .  S
C930        F934   1.383       .  S
C930        F935   1.377       .  S
C930        F936   1.379       .  S
C937        C938   1.417       .  A
C937        C942   1.427       .  A
C937        H944   1.080       .  S
C938        C939   1.423       .  A
C939        C940   1.412       .  A
C939        C946   1.516       .  S
C940        C941   1.414       .  A
C940        H945   1.082       .  S
C941        C942   1.423       .  A
C942        C943   1.519       .  S
C943        F947   1.385       .  S
C943        F948   1.382       .  S
C943        F949   1.383       .  S
C946        F950   1.385       .  S
C946        F951   1.380       .  S
C946        F952   1.374       .  S
C953        C954   1.416       .  A
C953        C958   1.421       .  A
C953        H960   1.072       .  S
C954        C955   1.426       .  A
C955        C956   1.419       .  A
C955        C962   1.514       .  S
C956        C957   1.408       .  A
C956        H961   1.082       .  S
C957        C958   1.419       .  A
C958        C959   1.518       .  S
C959        F963   1.384       .  S
C959        F964   1.382       .  S
C959        F965   1.383       .  S
C962        F966   1.380       .  S
C962        F967   1.381       .  S
C962        F968   1.385       .  S
C969        C970   1.399       .  A
C969        C974   1.411       .  A
C969        H976   1.082       .  S
C970        C971   1.427       .  A
C971        C972   1.406       .  A
C971        C978   1.517       .  S
C972        C973   1.400       .  A
C972        H977   1.085       .  S
C973        C974   1.420       .  A
C974        C975   1.501       .  S
C975        F979   1.384       .  S
C975        F980   1.382       .  S
C975        F981   1.378       .  S
C978        F982   1.382       .  S
C978        F983   1.373       .  S
C978        F984   1.384       .  S
C985        C986   1.399       .  A
C985        C990   1.408       .  A
C985        H992   1.082       .  S
C986        C987   1.398       .  A
C987        C988   1.393       .  A
C987        C994   1.499       .  S
C988        C989   1.400       .  A
C988        H993   1.084       .  S
C989        C990   1.416       .  A
C990        C991   1.513       .  S
C991        F995   1.384       .  S
C991        F996   1.382       .  S
C991        F997   1.379       .  S
C994        F998   1.383       .  S
C994        F999   1.372       .  S
C994       F1000   1.383       .  S
C1001      C1002   1.404       .  A
C1001      C1006   1.396       .  A
C1001      H1008   1.085       .  S
C1002      C1003   1.412       .  A
C1003      C1004   1.389       .  A
C1003      C1010   1.507       .  S
C1004      C1005   1.393       .  A
C1004      H1009   1.082       .  S
C1005      C1006   1.404       .  A
C1006      C1007   1.506       .  S
C1007      F1011   1.384       .  S
C1007      F1012   1.381       .  S
C1007      F1013   1.378       .  S
C1010      F1014   1.375       .  S
C1010      F1015   1.382       .  S
C1010      F1016   1.383       .  S
C1017      C1018   1.413       .  A
C1017      C1022   1.431       .  A
C1017      H1024   1.083       .  S
C1018      C1019   1.430       .  A
C1019      C1020   1.422       .  A
C1019      C1026   1.520       .  S
C1020      C1021   1.410       .  A
C1020      H1025   1.085       .  S
C1021      C1022   1.429       .  A
C1022      C1023   1.517       .  S
C1023      F1027   1.384       .  S
C1023      F1028   1.384       .  S
C1023      F1029   1.380       .  S
C1026      F1030   1.384       .  S
C1026      F1031   1.379       .  S
C1026      F1032   1.383       .  S
C1033      C1034   1.411       .  A
C1033      C1038   1.421       .  A
C1033      H1040   1.084       .  S
C1034      C1035   1.430       .  A
C1035      C1036   1.421       .  A
C1035      C1042   1.523       .  S
C1036      C1037   1.408       .  A
C1036      H1041   1.080       .  S
C1037      C1038   1.426       .  A
C1038      C1039   1.510       .  S
C1039      F1043   1.382       .  S
C1039      F1044   1.379       .  S
C1039      F1045   1.375       .  S
C1042      F1046   1.385       .  S
C1042      F1047   1.384       .  S
C1042      F1048   1.378       .  S
C1049      C1050   1.411       .  A
C1049      C1054   1.419       .  A
C1049      H1056   1.084       .  S
C1050      C1051   1.429       .  A
C1051      C1052   1.422       .  A
C1051      C1058   1.521       .  S
C1052      C1053   1.409       .  A
C1052      H1057   1.082       .  S
C1053      C1054   1.425       .  A
C1054      C1055   1.511       .  S
C1055      F1059   1.382       .  S
C1055      F1060   1.371       .  S
C1055      F1061   1.380       .  S
C1058      F1062   1.380       .  S
C1058      F1063   1.384       .  S
C1058      F1064   1.385       .  S
C1065      C1066   1.413       .  A
C1065      C1070   1.426       .  A
C1065      H1072   1.075       .  S
C1066      C1067   1.431       .  A
C1067      C1068   1.410       .  A
C1067      C1074   1.510       .  S
C1068      C1069   1.403       .  A
C1068      H1073   1.085       .  S
C1069      C1070   1.424       .  A
C1070      C1071   1.516       .  S
C1071      F1075   1.384       .  S
C1071      F1076   1.384       .  S
C1071      F1077   1.382       .  S
C1074      F1078   1.383       .  S
C1074      F1079   1.363       .  S
C1074      F1080   1.385       .  S
C1081      C1082   1.411       .  A
C1081      C1086   1.416       .  A
C1081      H1088   1.084       .  S
C1082      C1083   1.428       .  A
C1083      C1084   1.415       .  A
C1083      C1090   1.519       .  S
C1084      C1085   1.405       .  A
C1084      H1089   1.081       .  S
C1085      C1086   1.424       .  A
C1086      C1087   1.513       .  S
C1087      F1091   1.381       .  S
C1087      F1092   1.372       .  S
C1087      F1093   1.382       .  S
C1090      F1094   1.382       .  S
C1090      F1095   1.383       .  S
C1090      F1096   1.385       .  S
C1097      C1098   1.402       .  A
C1097      C1102   1.411       .  A
C1097      H1104   1.078       .  S
C1098      C1099   1.420       .  A
C1099      C1100   1.417       .  A
C1099      C1106   1.516       .  S
C1100      C1101   1.413       .  A
C1100      H1105   1.084       .  S
C1101      C1102   1.429       .  A
C1102      C1103   1.524       .  S
C1103      F1107   1.385       .  S
C1103      F1108   1.378       .  S
C1103      F1109   1.383       .  S
C1106      F1110   1.380       .  S
C1106      F1111   1.381       .  S
C1106      F1112   1.383       .  S
C1113      C1114   1.401       .  A
C1113      C1118   1.394       .  A
C1113      H1120   1.083   1_545  S
C1114      C1115   1.403       .  A
C1115      C1116   1.386       .  A
C1115      C1122   1.510       .  S
C1116      C1117   1.399       .  A
C1116      H1121   1.081       .  S
C1117      C1118   1.405       .  A
C1118      C1119   1.510       .  S
C1119      F1123   1.384   1_545  S
C1119      F1124   1.382       .  S
C1119      F1125   1.375       .  S
C1122      F1126   1.380       .  S
C1122      F1127   1.381       .  S
C1122      F1128   1.384       .  S
C1129      C1130   1.400       .  A
C1129      C1134   1.390       .  A
C1129      H1136   1.085       .  S
C1130      C1131   1.405       .  A
C1131      C1132   1.392       .  A
C1131      C1138   1.513       .  S
C1132      C1133   1.402       .  A
C1132      H1137   1.084       .  S
C1133      C1134   1.406       .  A
C1134      C1135   1.511       .  S
C1135      F1139   1.384       .  S
C1135      F1140   1.379       .  S
C1135      F1141   1.380       .  S
C1138      F1142   1.380       .  S
C1138      F1143   1.380       .  S
C1138      F1144   1.384       .  S
C1145      C1146   1.403       .  A
C1145      C1150   1.394       .  A
C1145      H1152   1.084   1_554  S
C1146      C1147   1.406       .  A
C1147      C1148   1.383       .  A
C1147      C1154   1.513       .  S
C1148      C1149   1.397       .  A
C1148      H1153   1.080       .  S
C1149      C1150   1.403       .  A
C1150      C1151   1.511       .  S
C1151      F1155   1.385   1_554  S
C1151      F1156   1.383   1_554  S
C1151      F1157   1.374       .  S
C1154      F1158   1.377       .  S
C1154      F1159   1.381       .  S
C1154      F1160   1.383       .  S
C1161      C1162   1.402       .  A
C1161      C1166   1.414       .  A
C1161      H1168   1.082       .  S
C1162      C1163   1.418       .  A
C1163      C1164   1.419       .  A
C1163      C1170   1.516       .  S
C1164      C1165   1.416       .  A
C1164      H1169   1.083       .  S
C1165      C1166   1.431       .  A
C1166      C1167   1.522       .  S
C1167      F1171   1.386   1_554  S
C1167      F1172   1.383       .  S
C1167      F1173   1.383       .  S
C1170      F1174   1.383       .  S
C1170      F1175   1.379       .  S
C1170      F1176   1.381       .  S
C1177      C1178   1.402       .  A
C1177      C1182   1.410       .  A
C1177      H1184   1.082       .  S
C1178      C1179   1.425       .  A
C1179      C1180   1.399       .  A
C1179      C1186   1.523       .  S
C1180      C1181   1.403       .  A
C1180      H1185   1.085       .  S
C1181      C1182   1.423       .  A
C1182      C1183   1.519       .  S
C1183      F1187   1.385       .  S
C1183      F1188   1.383       .  S
C1183      F1189   1.379       .  S
C1186      F1190   1.384       .  S
C1186      F1191   1.377       .  S
C1186      F1192   1.384       .  S
C1193      C1194   1.412       .  A
C1193      C1198   1.423       .  A
C1193      H1200   1.084       .  S
C1194      C1195   1.429       .  A
C1195      C1196   1.415       .  A
C1195      C1202   1.519       .  S
C1196      C1197   1.406       .  A
C1196      H1201   1.082   1_545  S
C1197      C1198   1.425       .  A
C1198      C1199   1.512       .  S
C1199      F1203   1.379       .  S
C1199      F1204   1.378       .  S
C1199      F1205   1.383       .  S
C1202      F1206   1.381   1_556  S
C1202      F1207   1.383       .  S
C1202      F1208   1.386   1_545  S
C1209      C1210   1.413       .  A
C1209      C1214   1.425       .  A
C1209      H1216   1.081       .  S
C1210      C1211   1.432       .  A
C1211      C1212   1.427       .  A
C1211      C1218   1.514       .  S
C1212      C1213   1.411       .  A
C1212      H1217   1.084       .  S
C1213      C1214   1.425       .  A
C1214      C1215   1.518       .  S
C1215      F1219   1.384       .  S
C1215      F1220   1.383       .  S
C1215      F1221   1.382       .  S
C1218      F1222   1.382       .  S
C1218      F1223   1.376       .  S
C1218      F1224   1.383       .  S
C1225      C1226   1.383       .  A
C1225      C1230   1.377       .  A
C1225      H1232   1.071       .  S
C1226      C1227   1.414       .  A
C1227      C1228   1.409       .  A
C1227      C1234   1.514   1_545  S
C1228      C1229   1.409       .  A
C1228      H1233   1.083       .  S
C1229      C1230   1.426       .  A
C1230      C1231   1.529       .  S
C1231      F1235   1.381       .  S
C1231      F1236   1.381       .  S
C1231      F1237   1.382       .  S
C1234      F1238   1.383       .  S
C1234      F1239   1.381       .  S
C1234      F1240   1.384       .  S
C1241      C1242   1.395       .  A
C1241      C1246   1.390       .  A
C1241      H1248   1.084   1_565  S
C1242      C1243   1.400       .  A
C1243      C1244   1.389       .  A
C1243      C1250   1.507       .  S
C1244      C1245   1.400       .  A
C1244      H1249   1.085       .  S
C1245      C1246   1.414       .  A
C1246      C1247   1.514       .  S
C1247      F1251   1.384   1_565  S
C1247      F1252   1.381       .  S
C1247      F1253   1.377       .  S
C1250      F1254   1.377       .  S
C1250      F1255   1.381       .  S
C1250      F1256   1.384       .  S
C1257      C1258   1.411       .  A
C1257      C1262   1.420       .  A
C1257      H1264   1.084       .  S
C1258      C1259   1.427       .  A
C1259      C1260   1.413       .  A
C1259      C1266   1.520       .  S
C1260      C1261   1.404       .  A
C1260      H1265   1.079       .  S
C1261      C1262   1.423       .  A
C1262      C1263   1.515       .  S
C1263      F1267   1.383       .  S
C1263      F1268   1.383       .  S
C1263      F1269   1.379       .  S
C1266      F1270   1.385       .  S
C1266      F1271   1.383       .  S
C1266      F1272   1.380       .  S
C1273      C1274   1.407   1_545  A
C1273      C1278   1.409       .  A
C1273      H1280   1.084       .  S
C1274      C1275   1.425       .  A
C1275      C1276   1.419       .  A
C1275      C1282   1.516       .  S
C1276      C1277   1.407       .  A
C1276      H1281   1.078       .  S
C1277      C1278   1.424   1_565  A
C1278      C1279   1.516       .  S
C1279      F1283   1.382       .  S
C1279      F1284   1.375       .  S
C1279      F1285   1.384       .  S
C1282      F1286   1.382       .  S
C1282      F1287   1.383       .  S
C1282      F1288   1.385       .  S
C1289      C1290   1.397       .  A
C1289      C1294   1.392       .  A
C1289      H1296   1.078       .  S
C1290      C1291   1.406       .  A
C1291      C1292   1.394       .  A
C1291      C1298   1.507       .  S
C1292      C1293   1.401       .  A
C1292      H1297   1.085       .  S
C1293      C1294   1.410       .  A
C1294      C1295   1.510       .  S
C1295      F1299   1.384       .  S
C1295      F1300   1.382       .  S
C1295      F1301   1.378       .  S
C1298      F1302   1.378       .  S
C1298      F1303   1.380       .  S
C1298      F1304   1.383       .  S
C1305      C1306   1.403       .  A
C1305      C1310   1.398       .  A
C1305      H1312   1.085       .  S
C1306      C1307   1.405       .  A
C1307      C1308   1.390       .  A
C1307      C1314   1.510       .  S
C1308      C1309   1.398       .  A
C1308      H1313   1.078       .  S
C1309      C1310   1.413       .  A
C1310      C1311   1.514       .  S
C1311      F1315   1.384       .  S
C1311      F1316   1.378       .  S
C1311      F1317   1.381       .  S
C1314      F1318   1.380       .  S
C1314      F1319   1.380       .  S
C1314      F1320   1.384       .  S
C1321      C1322   1.402       .  A
C1321      C1326   1.405       .  A
C1321      H1328   1.084       .  S
C1322      C1323   1.429       .  A
C1323      C1324   1.421       .  A
C1323      C1330   1.520       .  S
C1324      C1325   1.408       .  A
C1324      H1329   1.079       .  S
C1325      C1326   1.426       .  A
C1326      C1327   1.515       .  S
C1327      F1331   1.383       .  S
C1327      F1332   1.383       .  S
C1327      F1333   1.368       .  S
C1330      F1334   1.377       .  S
C1330      F1335   1.384       .  S
C1330      F1336   1.385       .  S
C1337      C1338   1.404       .  A
C1337      C1342   1.413       .  A
C1337      H1344   1.082       .  S
C1338      C1339   1.424       .  A
C1339      C1340   1.417       .  A
C1339      C1346   1.513       .  S
C1340      C1341   1.410       .  A
C1340      H1345   1.084       .  S
C1341      C1342   1.427       .  A
C1342      C1343   1.521       .  S
C1343      F1347   1.385       .  S
C1343      F1348   1.384       .  S
C1343      F1349   1.380       .  S
C1346      F1350   1.383       .  S
C1346      F1351   1.374       .  S
C1346      F1352   1.382       .  S
C1353      C1354   1.412       .  A
C1353      C1358   1.424       .  A
C1353      H1360   1.079       .  S
C1354      C1355   1.428       .  A
C1355      C1356   1.408       .  A
C1355      C1362   1.517   1_565  S
C1356      C1357   1.405       .  A
C1356      H1361   1.084       .  S
C1357      C1358   1.422       .  A
C1358      C1359   1.517       .  S
C1359      F1363   1.384       .  S
C1359      F1364   1.385       .  S
C1359      F1365   1.377       .  S
C1362      F1366   1.383       .  S
C1362      F1367   1.371       .  S
C1362      F1368   1.384       .  S
C1369      C1370   1.405       .  A
C1369      C1374   1.422       .  A
C1369      H1376   1.084       .  S
C1370      C1371   1.418       .  A
C1371      C1372   1.416       .  A
C1371      C1378   1.506       .  S
C1372      C1373   1.409       .  A
C1372      H1377   1.077       .  S
C1373      C1374   1.440       .  A
C1374      C1375   1.513   1_545  S
C1375      F1379   1.383       .  S
C1375      F1380   1.382   1_565  S
C1375      F1381   1.370       .  S
C1378      F1382   1.382       .  S
C1378      F1383   1.370       .  S
C1378      F1384   1.372       .  S
C1385      C1386   1.407       .  A
C1385      C1390   1.421       .  A
C1385      H1392   1.080       .  S
C1386      C1387   1.428   1_545  A
C1387      C1388   1.412       .  A
C1387      C1394   1.521       .  S
C1388      C1389   1.405   1_565  A
C1388      H1393   1.084       .  S
C1389      C1390   1.424       .  A
C1390      C1391   1.516       .  S
C1391      F1395   1.385       .  S
C1391      F1396   1.381       .  S
C1391      F1397   1.384       .  S
C1394      F1398   1.384       .  S
C1394      F1399   1.376       .  S
C1394      F1400   1.383       .  S
C1401      C1402   1.408       .  A
C1401      C1406   1.421       .  A
C1401      H1408   1.081       .  S
C1402      C1403   1.426       .  A
C1403      C1404   1.422       .  A
C1403      C1410   1.510       .  S
C1404      C1405   1.410       .  A
C1404      H1409   1.084       .  S
C1405      C1406   1.429       .  A
C1406      C1407   1.524       .  S
C1407      F1411   1.385       .  S
C1407      F1412   1.380       .  S
C1407      F1413   1.384       .  S
C1410      F1414   1.383       .  S
C1410      F1415   1.375       .  S
C1410      F1416   1.379       .  S
C1417      C1418   1.397       .  A
C1417      C1422   1.387       .  A
C1417      H1424   1.084       .  S
C1418      C1419   1.412       .  A
C1419      C1420   1.397       .  A
C1419      C1426   1.512       .  S
C1420      C1421   1.402       .  A
C1420      H1425   1.084       .  S
C1421      C1422   1.404       .  A
C1422      C1423   1.503       .  S
C1423      F1427   1.383       .  S
C1423      F1428   1.381       .  S
C1423      F1429   1.376       .  S
C1426      F1430   1.382       .  S
C1426      F1431   1.379       .  S
C1426      F1432   1.383       .  S
C1433      C1434   1.407       .  A
C1433      C1438   1.407       .  A
C1433      H1440   1.083       .  S
C1434      C1435   1.412       .  A
C1435      C1436   1.371       .  A
C1435      C1442   1.515       .  S
C1436      C1437   1.390       .  A
C1436      H1441   1.079       .  S
C1437      C1438   1.418       .  A
C1438      C1439   1.516       .  S
C1439      F1443   1.385       .  S
C1439      F1444   1.383       .  S
C1439      F1445   1.383       .  S
C1442      F1446   1.381       .  S
C1442      F1447   1.374       .  S
C1442      F1448   1.382       .  S
C1449      C1450   1.408       .  A
C1449      C1454   1.401       .  A
C1449      H1456   1.083       .  S
C1450      C1451   1.430       .  A
C1451      C1452   1.369       .  A
C1451      C1458   1.550       .  S
C1452      C1453   1.393       .  A
C1452      H1457   1.078       .  S
C1453      C1454   1.409       .  A
C1454      C1455   1.517   1_545  S
C1455      F1459   1.384       .  S
C1455      F1460   1.383       .  S
C1455      F1461   1.383       .  S
C1458      F1462   1.367       .  S
C1458      F1463   1.369       .  S
C1458      F1464   1.386       .  S
C1465      C1466   1.399       .  A
C1465      C1470   1.416       .  A
C1465      H1472   1.077       .  S
C1466      C1467   1.428   1_545  A
C1467      C1468   1.417       .  A
C1467      C1474   1.515       .  S
C1468      C1469   1.407   1_565  A
C1468      H1473   1.084       .  S
C1469      C1470   1.439       .  A
C1470      C1471   1.525       .  S
C1471      F1475   1.376       .  S
C1471      F1476   1.373   1_545  S
C1471      F1477   1.384       .  S
C1474      F1478   1.382       .  S
C1474      F1479   1.375       .  S
C1474      F1480   1.384       .  S
C1481      C1482   1.416       .  A
C1481      C1486   1.415       .  A
C1481      H1488   1.084       .  S
C1482      C1483   1.425   1_565  A
C1483      C1484   1.422       .  A
C1483      C1490   1.519       .  S
C1484      C1485   1.412   1_545  A
C1484      H1489   1.081       .  S
C1485      C1486   1.419       .  A
C1486      C1487   1.515       .  S
C1487      F1491   1.383       .  S
C1487      F1492   1.378       .  S
C1487      F1493   1.381       .  S
C1490      F1494   1.383       .  S
C1490      F1495   1.380       .  S
C1490      F1496   1.385       .  S
C1497      C1498   1.376       .  A
C1497      C1502   1.377       .  A
C1497      H1504   1.074       .  S
C1498      C1499   1.416       .  A
C1499      C1500   1.419       .  A
C1499      C1506   1.513       .  S
C1500      C1501   1.411       .  A
C1500      H1505   1.083       .  S
C1501      C1502   1.438       .  A
C1502      C1503   1.526       .  S
C1503      F1507   1.375       .  S
C1503      F1508   1.366       .  S
C1503      F1509   1.380       .  S
C1506      F1510   1.383       .  S
C1506      F1511   1.383       .  S
C1506      F1512   1.384       .  S
C1513      C1514   1.397       .  A
C1513      C1518   1.387       .  A
C1513      H1520   1.078       .  S
C1514      C1515   1.409       .  A
C1515      C1516   1.393       .  A
C1515      C1522   1.507       .  S
C1516      C1517   1.399       .  A
C1516      H1521   1.085       .  S
C1517      C1518   1.405       .  A
C1518      C1519   1.510       .  S
C1519      F1523   1.380       .  S
C1519      F1524   1.379       .  S
C1519      F1525   1.384       .  S
C1522      F1526   1.379       .  S
C1522      F1527   1.381       .  S
C1522      F1528   1.384       .  S
C1529      C1530   1.380       .  A
C1529      C1534   1.384       .  A
C1529      H1536   1.079       .  S
C1530      C1531   1.406       .  A
C1531      C1532   1.393       .  A
C1531      C1538   1.517       .  S
C1532      C1533   1.402       .  A
C1532      H1537   1.083       .  S
C1533      C1534   1.425       .  A
C1534      C1535   1.512       .  S
C1535      F1539   1.383       .  S
C1535      F1540   1.377       .  S
C1535      F1541   1.377       .  S
C1538      F1542   1.383       .  S
C1538      F1543   1.374       .  S
C1538      F1544   1.385       .  S
C1545      C1546   1.408       .  A
C1545      C1550   1.403       .  A
C1545      H1552   1.083       .  S
C1546      C1547   1.435       .  A
C1547      C1548   1.385       .  A
C1547      C1554   1.540       .  S
C1548      C1549   1.381       .  A
C1548      H1553   1.073       .  S
C1549      C1550   1.409       .  A
C1550      C1551   1.510       .  S
C1551      F1555   1.384       .  S
C1551      F1556   1.377       .  S
C1551      F1557   1.383       .  S
C1554      F1558   1.375       .  S
C1554      F1559   1.381       .  S
C1554      F1560   1.384       .  S
C1561      C1562   1.410       .  A
C1561      C1566   1.410       .  A
C1561      H1568   1.084       .  S
C1562      C1563   1.428       .  A
C1563      C1564   1.427       .  A
C1563      C1570   1.519       .  S
C1564      C1565   1.412       .  A
C1564      H1569   1.078       .  S
C1565      C1566   1.424       .  A
C1566      C1567   1.518       .  S
C1567      F1571   1.382       .  S
C1567      F1572   1.375       .  S
C1567      F1573   1.384       .  S
C1570      F1574   1.380       .  S
C1570      F1575   1.383       .  S
C1570      F1576   1.385       .  S
C1577      C1578   1.406       .  A
C1577      C1582   1.424       .  A
C1577      H1584   1.076       .  S
C1578      C1579   1.429       .  A
C1579      C1580   1.417       .  A
C1579      C1586   1.515       .  S
C1580      C1581   1.407       .  A
C1580      H1585   1.084       .  S
C1581      C1582   1.429       .  A
C1582      C1583   1.519       .  S
C1583      F1587   1.377       .  S
C1583      F1588   1.384       .  S
C1583      F1589   1.383       .  S
C1586      F1590   1.384       .  S
C1586      F1591   1.377       .  S
C1586      F1592   1.382       .  S
C1593      C1594   1.413       .  A
C1593      C1598   1.429       .  A
C1593      H1600   1.081       .  S
C1594      C1595   1.432       .  A
C1595      C1596   1.407       .  A
C1595      C1602   1.515       .  S
C1596      C1597   1.402       .  A
C1596      H1601   1.085       .  S
C1597      C1598   1.426       .  A
C1598      C1599   1.516       .  S
C1599      F1603   1.385       .  S
C1599      F1604   1.383       .  S
C1599      F1605   1.381       .  S
C1602      F1606   1.364       .  S
C1602      F1607   1.382       .  S
C1602      F1608   1.384       .  S
C1609      C1610   1.403       .  A
C1609      C1614   1.420       .  A
C1609      H1616   1.075       .  S
C1610      C1611   1.423       .  A
C1611      C1612   1.421       .  A
C1611      C1618   1.520       .  S
C1612      C1613   1.411       .  A
C1612      H1617   1.082       .  S
C1613      C1614   1.428       .  A
C1614      C1615   1.518       .  S
C1615      F1619   1.385       .  S
C1615      F1620   1.379       .  S
C1615      F1621   1.384       .  S
C1618      F1622   1.377       .  S
C1618      F1623   1.382       .  S
C1618      F1624   1.384       .  S
C1625      C1626   1.406       .  A
C1625      C1630   1.415       .  A
C1625      H1632   1.084       .  S
C1626      C1627   1.432       .  A
C1627      C1628   1.427       .  A
C1627      C1634   1.518       .  S
C1628      C1629   1.409       .  A
C1628      H1633   1.082       .  S
C1629      C1630   1.430       .  A
C1630      C1631   1.515       .  S
C1631      F1635   1.382       .  S
C1631      F1636   1.374       .  S
C1631      F1637   1.384       .  S
C1634      F1638   1.384       .  S
C1634      F1639   1.382       .  S
C1634      F1640   1.385       .  S
C1641      C1642   1.408       .  A
C1641      C1646   1.410       .  A
C1641      H1648   1.080       .  S
C1642      C1643   1.428       .  A
C1643      C1644   1.420       .  A
C1643      C1650   1.518       .  S
C1644      C1645   1.408       .  A
C1644      H1649   1.083       .  S
C1645      C1646   1.422       .  A
C1646      C1647   1.509       .  S
C1647      F1651   1.384       .  S
C1647      F1652   1.368       .  S
C1647      F1653   1.382       .  S
C1650      F1654   1.382       .  S
C1650      F1655   1.383       .  S
C1650      F1656   1.385       .  S
C1657      C1658   1.392       .  A
C1657      C1662   1.387       .  A
C1657      H1664   1.085       .  S
C1658      C1659   1.420       .  A
C1659      C1660   1.386       .  A
C1659      C1666   1.508       .  S
C1660      C1661   1.384       .  A
C1660      H1665   1.085       .  S
C1661      C1662   1.408       .  A
C1662      C1663   1.505       .  S
C1663      F1667   1.384       .  S
C1663      F1668   1.382       .  S
C1663      F1669   1.380       .  S
C1666      F1670   1.382       .  S
C1666      F1671   1.377       .  S
C1666      F1672   1.386       .  S
C1673      C1674   1.382       .  A
C1673      C1678   1.388       .  A
C1673      H1680   1.084       .  S
C1674      C1675   1.415       .  A
C1675      C1676   1.398       .  A
C1675      C1682   1.514       .  S
C1676      C1677   1.398       .  A
C1676      H1681   1.085       .  S
C1677      C1678   1.419       .  A
C1678      C1679   1.504       .  S
C1679      F1683   1.384       .  S
C1679      F1684   1.381       .  S
C1679      F1685   1.378       .  S
C1682      F1686   1.384       .  S
C1682      F1687   1.380       .  S
C1682      F1688   1.383       .  S
C1689      C1690   1.408       .  A
C1689      C1694   1.411       .  A
C1689      H1696   1.083       .  S
C1690      C1691   1.419       .  A
C1691      C1692   1.367       .  A
C1691      C1698   1.518       .  S
C1692      C1693   1.381       .  A
C1692      H1697   1.072       .  S
C1693      C1694   1.417       .  A
C1694      C1695   1.509   1_554  S
C1695      F1699   1.384       .  S
C1695      F1700   1.380       .  S
C1695      F1701   1.383       .  S
C1698      F1702   1.371       .  S
C1698      F1703   1.382       .  S
C1698      F1704   1.385       .  S
C1705      C1706   1.401       .  A
C1705      C1710   1.415       .  A
C1705      H1712   1.076       .  S
C1706      C1707   1.429   1_554  A
C1707      C1708   1.421   1_556  A
C1707      C1714   1.517       .  S
C1708      C1709   1.408       .  A
C1708      H1713   1.084   1_554  S
C1709      C1710   1.435       .  A
C1710      C1711   1.525       .  S
C1711      F1715   1.385       .  S
C1711      F1716   1.384       .  S
C1711      F1717   1.376       .  S
C1714      F1718   1.383   1_556  S
C1714      F1719   1.380       .  S
C1714      F1720   1.384       .  S
C1721      C1722   1.412       .  A
C1721      C1726   1.424       .  A
C1721      H1728   1.084       .  S
C1722      C1723   1.434       .  A
C1723      C1724   1.429       .  A
C1723      C1730   1.519       .  S
C1724      C1725   1.410       .  A
C1724      H1729   1.079       .  S
C1725      C1726   1.430       .  A
C1726      C1727   1.519   1_556  S
C1727      F1731   1.383   1_554  S
C1727      F1732   1.379       .  S
C1727      F1733   1.384       .  S
C1730      F1734   1.383       .  S
C1730      F1735   1.381       .  S
C1730      F1736   1.385       .  S
C1737      C1738   1.406       .  A
C1737      C1742   1.416       .  A
C1737      H1744   1.083       .  S
C1738      C1739   1.425       .  A
C1739      C1740   1.414       .  A
C1739      C1746   1.511       .  S
C1740      C1741   1.406       .  A
C1740      H1745   1.078       .  S
C1741      C1742   1.428       .  A
C1742      C1743   1.518       .  S
C1743      F1747   1.385       .  S
C1743      F1748   1.383       .  S
C1743      F1749   1.383       .  S
C1746      F1750   1.371       .  S
C1746      F1751   1.383       .  S
C1746      F1752   1.383       .  S
C1753      C1754   1.405       .  A
C1753      C1758   1.413       .  A
C1753      H1760   1.081       .  S
C1754      C1755   1.426       .  A
C1755      C1756   1.425       .  A
C1755      C1762   1.513       .  S
C1756      C1757   1.410       .  A
C1756      H1761   1.084       .  S
C1757      C1758   1.424       .  A
C1758      C1759   1.520       .  S
C1759      F1763   1.385       .  S
C1759      F1764   1.381       .  S
C1759      F1765   1.384       .  S
C1762      F1766   1.379       .  S
C1762      F1767   1.384       .  S
C1762      F1768   1.383       .  S
C1769      C1770   1.418       .  A
C1769      C1774   1.411       .  A
C1769      H1776   1.082       .  S
C1770      C1771   1.441       .  A
C1771      C1772   1.435       .  A
C1771      C1778   1.517       .  S
C1772      C1773   1.421       .  A
C1772      H1777   1.082       .  S
C1773      C1774   1.401       .  A
C1774      C1775   1.522       .  S
C1775      F1779   1.384       .  S
C1775      F1780   1.365       .  S
C1775      F1781   1.373       .  S
C1778      F1782   1.374       .  S
C1778      F1783   1.383       .  S
C1778      F1784   1.384       .  S
C1785      C1786   1.407       .  A
C1785      C1790   1.418       .  A
C1785      H1792   1.084       .  S
C1786      C1787   1.431       .  A
C1787      C1788   1.414       .  A
C1787      C1794   1.522       .  S
C1788      C1789   1.404       .  A
C1788      H1793   1.077       .  S
C1789      C1790   1.433       .  A
C1790      C1791   1.520       .  S
C1791      F1795   1.383       .  S
C1791      F1796   1.380       .  S
C1791      F1797   1.384       .  S
C1794      F1798   1.370       .  S
C1794      F1799   1.385       .  S
C1794      F1800   1.378       .  S
C1801      C1802   1.418       .  A
C1801      C1806   1.435       .  A
C1801      H1808   1.083       .  S
C1802      C1803   1.415       .  A
C1803      C1804   1.415       .  A
C1803      C1810   1.518       .  S
C1804      C1805   1.412       .  A
C1804      H1809   1.081       .  S
C1805      C1806   1.441       .  A
C1806      C1807   1.511       .  S
C1807      F1811   1.384       .  S
C1807      F1812   1.382       .  S
C1807      F1813   1.376       .  S
C1810      F1814   1.381       .  S
C1810      F1815   1.382       .  S
C1810      F1816   1.386       .  S
C1817      C1818   1.409       .  A
C1817      C1822   1.419       .  A
C1817      H1824   1.080       .  S
C1818      C1819   1.422       .  A
C1819      C1820   1.414       .  A
C1819      C1826   1.514       .  S
C1820      C1821   1.413       .  A
C1820      H1825   1.082       .  S
C1821      C1822   1.426       .  A
C1822      C1823   1.519       .  S
C1823      F1827   1.385       .  S
C1823      F1828   1.383       .  S
C1823      F1829   1.384       .  S
C1826      F1830   1.380       .  S
C1826      F1831   1.374       .  S
C1826      F1832   1.380       .  S
C1833      C1834   1.398       .  A
C1833      C1838   1.379       .  A
C1833      H1840   1.084       .  S
C1834      C1835   1.416       .  A
C1835      C1836   1.417       .  A
C1835      C1842   1.514       .  S
C1836      C1837   1.408       .  A
C1836      H1841   1.083       .  S
C1837      C1838   1.396       .  A
C1838      C1839   1.499       .  S
C1839      F1843   1.380       .  S
C1839      F1844   1.380       .  S
C1839      F1845   1.382       .  S
C1842      F1846   1.382       .  S
C1842      F1847   1.383       .  S
C1842      F1848   1.384       .  S
C1849      C1850   1.402       .  A
C1849      C1854   1.395       .  A
C1849      H1856   1.085       .  S
C1850      C1851   1.403       .  A
C1851      C1852   1.385       .  A
C1851      C1858   1.499       .  S
C1852      C1853   1.394       .  A
C1852      H1857   1.084       .  S
C1853      C1854   1.412       .  A
C1854      C1855   1.513       .  S
C1855      F1859   1.384       .  S
C1855      F1860   1.382       .  S
C1855      F1861   1.377       .  S
C1858      F1862   1.377       .  S
C1858      F1863   1.379       .  S
C1858      F1864   1.384       .  S
C1865      C1866   1.413       .  A
C1865      C1870   1.414       .  A
C1865      H1872   1.082       .  S
C1866      C1867   1.432       .  A
C1867      C1868   1.373       .  A
C1867      C1874   1.539       .  S
C1868      C1869   1.391       .  A
C1868      H1873   1.072       .  S
C1869      C1870   1.411       .  A
C1870      C1871   1.515       .  S
C1871      F1875   1.384   1_455  S
C1871      F1876   1.383       .  S
C1871      F1877   1.383       .  S
C1874      F1878   1.379       .  S
C1874      F1879   1.369       .  S
C1874      F1880   1.382       .  S
C1881      C1882   1.404   1_455  A
C1881      C1886   1.414       .  A
C1881      H1888   1.084       .  S
C1882      C1883   1.416       .  A
C1883      C1884   1.414       .  A
C1883      C1890   1.517       .  S
C1884      C1885   1.414       .  A
C1884      H1889   1.078       .  S
C1885      C1886   1.432   1_655  A
C1886      C1887   1.518       .  S
C1887      F1891   1.383       .  S
C1887      F1892   1.378       .  S
C1887      F1893   1.384       .  S
C1890      F1894   1.383       .  S
C1890      F1895   1.382       .  S
C1890      F1896   1.385       .  S
C1897      C1898   1.398       .  A
C1897      C1902   1.418       .  A
C1897      H1904   1.072       .  S
C1898      C1899   1.428       .  A
C1899      C1900   1.419       .  A
C1899      C1906   1.516       .  S
C1900      C1901   1.409       .  A
C1900      H1905   1.084       .  S
C1901      C1902   1.443       .  A
C1902      C1903   1.531       .  S
C1903      F1907   1.384       .  S
C1903      F1908   1.370       .  S
C1903      F1909   1.365       .  S
C1906      F1910   1.384       .  S
C1906      F1911   1.375       .  S
C1906      F1912   1.383       .  S
C1913      C1914   1.409       .  A
C1913      C1918   1.426       .  A
C1913      H1920   1.081       .  S
C1914      C1915   1.430       .  A
C1915      C1916   1.421       .  A
C1915      C1922   1.521       .  S
C1916      C1917   1.410       .  A
C1916      H1921   1.085       .  S
C1917      C1918   1.427       .  A
C1918      C1919   1.508       .  S
C1919      F1923   1.385       .  S
C1919      F1924   1.381       .  S
C1919      F1925   1.379       .  S
C1922      F1926   1.383       .  S
C1922      F1927   1.379       .  S
C1922      F1928   1.384       .  S
C1929      C1930   1.397       .  A
C1929      C1934   1.385       .  A
C1929      H1936   1.081       .  S
C1930      C1931   1.409       .  A
C1931      C1932   1.389       .  A
C1931      C1938   1.514       .  S
C1932      C1933   1.401       .  A
C1932      H1937   1.083       .  S
C1933      C1934   1.402       .  A
C1934      C1935   1.509       .  S
C1935      F1939   1.383       .  S
C1935      F1940   1.381       .  S
C1935      F1941   1.381       .  S
C1938      F1942   1.378       .  S
C1938      F1943   1.383       .  S
C1938      F1944   1.384       .  S
C1945      C1946   1.390       .  A
C1945      C1950   1.379       .  A
C1945      H1952   1.077       .  S
C1946      C1947   1.411       .  A
C1947      C1948   1.409       .  A
C1947      C1954   1.516       .  S
C1948      C1949   1.409       .  A
C1948      H1953   1.083       .  S
C1949      C1950   1.439       .  A
C1950      C1951   1.546       .  S
C1951      F1955   1.383       .  S
C1951      F1956   1.374       .  S
C1951      F1957   1.375       .  S
C1954      F1958   1.384       .  S
C1954      F1959   1.383       .  S
C1954      F1960   1.384       .  S
C1961      C1962   1.405       .  A
C1961      C1966   1.412       .  A
C1961      H1968   1.082       .  S
C1962      C1963   1.426       .  A
C1963      C1964   1.421       .  A
C1963      C1970   1.518       .  S
C1964      C1965   1.408       .  A
C1964      H1969   1.083       .  S
C1965      C1966   1.424       .  A
C1966      C1967   1.521   1_655  S
C1967      F1971   1.385       .  S
C1967      F1972   1.381       .  S
C1967      F1973   1.373       .  S
C1970      F1974   1.384       .  S
C1970      F1975   1.380       .  S
C1970      F1976   1.385       .  S
C1977      C1978   1.415       .  A
C1977      C1982   1.411       .  A
C1977      H1984   1.084       .  S
C1978      C1979   1.426       .  A
C1979      C1980   1.412       .  A
C1979      C1986   1.526       .  S
C1980      C1981   1.408       .  A
C1980      H1985   1.083   1_655  S
C1981      C1982   1.416       .  A
C1982      C1983   1.514       .  S
C1983      F1987   1.383       .  S
C1983      F1988   1.384       .  S
C1983      F1989   1.377       .  S
C1986      F1990   1.385   1_655  S
C1986      F1991   1.383       .  S
C1986      F1992   1.374   1_655  S
C1993      C1994   1.406       .  A
C1993      C1998   1.411       .  A
C1993      H2000   1.070       .  S
C1994      C1995   1.435       .  A
C1995      C1996   1.430       .  A
C1995      C2002   1.520       .  S
C1996      C1997   1.420       .  A
C1996      H2001   1.077       .  S
C1997      C1998   1.424       .  A
C1998      C1999   1.536       .  S
C1999      F2003   1.388       .  S
C1999      F2004   1.378       .  S
C1999      F2005   1.368       .  S
C2002      F2006   1.381       .  S
C2002      F2007   1.382       .  S
C2002      F2008   1.384       .  S
C2009      C2010   1.408       .  A
C2009      C2014   1.418       .  A
C2009      H2016   1.079       .  S
C2010      C2011   1.422       .  A
C2011      C2012   1.420       .  A
C2011      C2018   1.515       .  S
C2012      C2013   1.411       .  A
C2012      H2017   1.083       .  S
C2013      C2014   1.429       .  A
C2014      C2015   1.524       .  S
C2015      F2019   1.385       .  S
C2015      F2020   1.384       .  S
C2015      F2021   1.384       .  S
C2018      F2022   1.378       .  S
C2018      F2023   1.382       .  S
C2018      F2024   1.382       .  S
C2025      C2026   1.413       .  A
C2025      C2030   1.419       .  A
C2025      H2032   1.084       .  S
C2026      C2027   1.429       .  A
C2027      C2028   1.423       .  A
C2027      C2034   1.521       .  S
C2028      C2029   1.410       .  A
C2028      H2033   1.081       .  S
C2029      C2030   1.426       .  A
C2030      C2031   1.514       .  S
C2031      F2035   1.384       .  S
C2031      F2036   1.383       .  S
C2031      F2037   1.374       .  S
C2034      F2038   1.381       .  S
C2034      F2039   1.383       .  S
C2034      F2040   1.385       .  S
C2041      C2042   1.413       .  A
C2041      C2046   1.416       .  A
C2041      H2048   1.084       .  S
C2042      C2043   1.425       .  A
C2043      C2044   1.402       .  A
C2043      C2050   1.520       .  S
C2044      C2045   1.396       .  A
C2044      H2049   1.080       .  S
C2045      C2046   1.419       .  A
C2046      C2047   1.516       .  S
C2047      F2051   1.383       .  S
C2047      F2052   1.380       .  S
C2047      F2053   1.383       .  S
C2050      F2054   1.376       .  S
C2050      F2055   1.380       .  S
C2050      F2056   1.385       .  S
C2057      C2058   1.405       .  A
C2057      C2062   1.414       .  A
C2057      H2064   1.083       .  S
C2058      C2059   1.431       .  A
C2059      C2060   1.420       .  A
C2059      C2066   1.510       .  S
C2060      C2061   1.405       .  A
C2060      H2065   1.082       .  S
C2061      C2062   1.427       .  A
C2062      C2063   1.520       .  S
C2063      F2067   1.385       .  S
C2063      F2068   1.384       .  S
C2063      F2069   1.382       .  S
C2066      F2070   1.383       .  S
C2066      F2071   1.370       .  S
C2066      F2072   1.382       .  S
C2073      C2074   1.407       .  A
C2073      C2078   1.420       .  A
C2073      H2080   1.082       .  S
C2074      C2075   1.430       .  A
C2075      C2076   1.415       .  A
C2075      C2082   1.522       .  S
C2076      C2077   1.408       .  A
C2076      H2081   1.084       .  S
C2077      C2078   1.426       .  A
C2078      C2079   1.520       .  S
C2079      F2083   1.383       .  S
C2079      F2084   1.378       .  S
C2079      F2085   1.384       .  S
C2082      F2086   1.384       .  S
C2082      F2087   1.380       .  S
C2082      F2088   1.381       .  S
C2089      C2090   1.399       .  A
C2089      C2094   1.390       .  A
C2089      H2096   1.083       .  S
C2090      C2091   1.407       .  A
C2091      C2092   1.388       .  A
C2091      C2098   1.507       .  S
C2092      C2093   1.397       .  A
C2092      H2097   1.085       .  S
C2093      C2094   1.409       .  A
C2094      C2095   1.512       .  S
C2095      F2099   1.384       .  S
C2095      F2100   1.379       .  S
C2095      F2101   1.380       .  S
C2098      F2102   1.378       .  S
C2098      F2103   1.380       .  S
C2098      F2104   1.384       .  S
C2105      C2106   1.413       .  A
C2105      C2110   1.418       .  A
C2105      H2112   1.083       .  S
C2106      C2107   1.412       .  A
C2107      C2108   1.372       .  A
C2107      C2114   1.523       .  S
C2108      C2109   1.386       .  A
C2108      H2113   1.078       .  S
C2109      C2110   1.416       .  A
C2110      C2111   1.512   1_556  S
C2111      F2115   1.384       .  S
C2111      F2116   1.383       .  S
C2111      F2117   1.382       .  S
C2114      F2118   1.379       .  S
C2114      F2119   1.373       .  S
C2114      F2120   1.386       .  S
C2121      C2122   1.400       .  A
C2121      C2126   1.391       .  A
C2121      H2128   1.083       .  S
C2122      C2123   1.409       .  A
C2123      C2124   1.393       .  A
C2123      C2130   1.506       .  S
C2124      C2125   1.399       .  A
C2124      H2129   1.085       .  S
C2125      C2126   1.404       .  A
C2126      C2127   1.508       .  S
C2127      F2131   1.383       .  S
C2127      F2132   1.380       .  S
C2127      F2133   1.376       .  S
C2130      F2134   1.379       .  S
C2130      F2135   1.379       .  S
C2130      F2136   1.385       .  S
C2137      C2138   1.418       .  A
C2137      C2142   1.426       .  A
C2137      H2144   1.084       .  S
C2138      C2139   1.434       .  A
C2139      C2140   1.420       .  A
C2139      C2146   1.522       .  S
C2140      C2141   1.405       .  A
C2140      H2145   1.082       .  S
C2141      C2142   1.423       .  A
C2142      C2143   1.515       .  S
C2143      F2147   1.383       .  S
C2143      F2148   1.378       .  S
C2143      F2149   1.378       .  S
C2146      F2150   1.384       .  S
C2146      F2151   1.384       .  S
C2146      F2152   1.385   1_556  S
C2153      C2154   1.407       .  A
C2153      C2158   1.417       .  A
C2153      H2160   1.081       .  S
C2154      C2155   1.422       .  A
C2155      C2156   1.419       .  A
C2155      C2162   1.515       .  S
C2156      C2157   1.414       .  A
C2156      H2161   1.084       .  S
C2157      C2158   1.428       .  A
C2158      C2159   1.524       .  S
C2159      F2163   1.385       .  S
C2159      F2164   1.376       .  S
C2159      F2165   1.384       .  S
C2162      F2166   1.383       .  S
C2162      F2167   1.378       .  S
C2162      F2168   1.383       .  S
C2169      C2170   1.408       .  A
C2169      C2174   1.420       .  A
C2169      H2176   1.084       .  S
C2170      C2171   1.431       .  A
C2171      C2172   1.429       .  A
C2171      C2178   1.519       .  S
C2172      C2173   1.410       .  A
C2172      H2177   1.082       .  S
C2173      C2174   1.430       .  A
C2174      C2175   1.518       .  S
C2175      F2179   1.384       .  S
C2175      F2180   1.383   1_556  S
C2175      F2181   1.376   1_556  S
C2178      F2182   1.384       .  S
C2178      F2183   1.380       .  S
C2178      F2184   1.385       .  S
C2185      C2186   1.401       .  A
C2185      C2190   1.414       .  A
C2185      H2192   1.083       .  S
C2186      C2187   1.429       .  A
C2187      C2188   1.430       .  A
C2187      C2194   1.517       .  S
C2188      C2189   1.414       .  A
C2188      H2193   1.083       .  S
C2189      C2190   1.433       .  A
C2190      C2191   1.501       .  S
C2191      F2195   1.383       .  S
C2191      F2196   1.358       .  S
C2191      F2197   1.384       .  S
C2194      F2198   1.383       .  S
C2194      F2199   1.384       .  S
C2194      F2200   1.384       .  S
C2201      C2202   1.414       .  A
C2201      C2206   1.421       .  A
C2201      H2208   1.084       .  S
C2202      C2203   1.432       .  A
C2203      C2204   1.407       .  A
C2203      C2210   1.530       .  S
C2204      C2205   1.399       .  A
C2204      H2209   1.079       .  S
C2205      C2206   1.419       .  A
C2206      C2207   1.516       .  S
C2207      F2211   1.380       .  S
C2207      F2212   1.380       .  S
C2207      F2213   1.382       .  S
C2210      F2214   1.383       .  S
C2210      F2215   1.377       .  S
C2210      F2216   1.385       .  S
C2217      C2218   1.413       .  A
C2217      C2222   1.429       .  A
C2217      H2224   1.082       .  S
C2218      C2219   1.430       .  A
C2219      C2220   1.419       .  A
C2219      C2226   1.506       .  S
C2220      C2221   1.406       .  A
C2220      H2225   1.084       .  S
C2221      C2222   1.432       .  A
C2222      C2223   1.519       .  S
C2223      F2227   1.380       .  S
C2223      F2228   1.383       .  S
C2223      F2229   1.385       .  S
C2226      F2230   1.380       .  S
C2226      F2231   1.367       .  S
C2226      F2232   1.379       .  S
C2233      C2234   1.399       .  A
C2233      C2238   1.407       .  A
C2233      H2240   1.084       .  S
C2234      C2235   1.425       .  A
C2235      C2236   1.392       .  A
C2235      C2242   1.501       .  S
C2236      C2237   1.380       .  A
C2236      H2241   1.081       .  S
C2237      C2238   1.418       .  A
C2238      C2239   1.509       .  S
C2239      F2243   1.383       .  S
C2239      F2244   1.378       .  S
C2239      F2245   1.378       .  S
C2242      F2246   1.379       .  S
C2242      F2247   1.378       .  S
C2242      F2248   1.384       .  S
C2249      C2250   1.401       .  A
C2249      C2254   1.389       .  A
C2249      H2256   1.085       .  S
C2250      C2251   1.416       .  A
C2251      C2252   1.388       .  A
C2251      C2258   1.515       .  S
C2252      C2253   1.394       .  A
C2252      H2257   1.080       .  S
C2253      C2254   1.401       .  A
C2254      C2255   1.503       .  S
C2255      F2259   1.384       .  S
C2255      F2260   1.377       .  S
C2255      F2261   1.379       .  S
C2258      F2262   1.384       .  S
C2258      F2263   1.383       .  S
C2258      F2264   1.373       .  S
C2265      C2266   1.396       .  A
C2265      C2270   1.382       .  A
C2265      H2272   1.080       .  S
C2266      C2267   1.409       .  A
C2267      C2268   1.402       .  A
C2267      C2274   1.505       .  S
C2268      C2269   1.399       .  A
C2268      H2273   1.083       .  S
C2269      C2270   1.399       .  A
C2270      C2271   1.502       .  S
C2271      F2275   1.383       .  S
C2271      F2276   1.380       .  S
C2271      F2277   1.377       .  S
C2274      F2278   1.383       .  S
C2274      F2279   1.375       .  S
C2274      F2280   1.385       .  S
C2281      C2282   1.406       .  A
C2281      C2286   1.408       .  A
C2281      H2288   1.082       .  S
C2282      C2283   1.428       .  A
C2283      C2284   1.419       .  A
C2283      C2290   1.519       .  S
C2284      C2285   1.404       .  A
C2284      H2289   1.081       .  S
C2285      C2286   1.422       .  A
C2286      C2287   1.522       .  S
C2287      F2291   1.385       .  S
C2287      F2292   1.381       .  S
C2287      F2293   1.378       .  S
C2290      F2294   1.383       .  S
C2290      F2295   1.379       .  S
C2290      F2296   1.385       .  S
C2297      C2298   1.401       .  A
C2297      C2302   1.422       .  A
C2297      H2304   1.083       .  S
C2298      C2299   1.429       .  A
C2299      C2300   1.411       .  A
C2299      C2306   1.520       .  S
C2300      C2301   1.405       .  A
C2300      H2305   1.056       .  S
C2301      C2302   1.442       .  A
C2302      C2303   1.516       .  S
C2303      F2307   1.376       .  S
C2303      F2308   1.364       .  S
C2303      F2309   1.383       .  S
C2306      F2310   1.375       .  S
C2306      F2311   1.386       .  S
C2306      F2312   1.382       .  S
C2313      C2314   1.408       .  A
C2313      C2318   1.425       .  A
C2313      H2320   1.081       .  S
C2314      C2315   1.430       .  A
C2315      C2316   1.425       .  A
C2315      C2322   1.511       .  S
C2316      C2317   1.412       .  A
C2316      H2321   1.084       .  S
C2317      C2318   1.432       .  A
C2318      C2319   1.519       .  S
C2319      F2323   1.385       .  S
C2319      F2324   1.383       .  S
C2319      F2325   1.383       .  S
C2322      F2326   1.382       .  S
C2322      F2327   1.371       .  S
C2322      F2328   1.379       .  S
C2329      C2330   1.411       .  A
C2329      C2334   1.416       .  A
C2329      H2336   1.078       .  S
C2330      C2331   1.430       .  A
C2331      C2332   1.419       .  A
C2331      C2338   1.513       .  S
C2332      C2333   1.410       .  A
C2332      H2337   1.082       .  S
C2333      C2334   1.423       .  A
C2334      C2335   1.507       .  S
C2335      F2339   1.385       .  S
C2335      F2340   1.382       .  S
C2335      F2341   1.379       .  S
C2338      F2342   1.382       .  S
C2338      F2343   1.373       .  S
C2338      F2344   1.384       .  S
C2345      C2346   1.404       .  A
C2345      C2350   1.405       .  A
C2345      H2352   1.066       .  S
C2346      C2347   1.428       .  A
C2347      C2348   1.414       .  A
C2347      C2354   1.518       .  S
C2348      C2349   1.406       .  A
C2348      H2353   1.081       .  S
C2349      C2350   1.413       .  A
C2350      C2351   1.519       .  S
C2351      F2355   1.383       .  S
C2351      F2356   1.382       .  S
C2351      F2357   1.381       .  S
C2354      F2358   1.385       .  S
C2354      F2359   1.376       .  S
C2354      F2360   1.380       .  S
C2361      C2362   1.405       .  A
C2361      C2366   1.411       .  A
C2361      H2368   1.083       .  S
C2362      C2363   1.428       .  A
C2363      C2364   1.417       .  A
C2363      C2370   1.519       .  S
C2364      C2365   1.407       .  A
C2364      H2369   1.083       .  S
C2365      C2366   1.425       .  A
C2366      C2367   1.512       .  S
C2367      F2371   1.378       .  S
C2367      F2372   1.371       .  S
C2367      F2373   1.377       .  S
C2370      F2374   1.383       .  S
C2370      F2375   1.383       .  S
C2370      F2376   1.385       .  S
C2377      C2378   1.410       .  A
C2377      C2382   1.418       .  A
C2377      H2384   1.080       .  S
C2378      C2379   1.424       .  A
C2379      C2380   1.418       .  A
C2379      C2386   1.515       .  S
C2380      C2381   1.414       .  A
C2380      H2385   1.082       .  S
C2381      C2382   1.426       .  A
C2382      C2383   1.526       .  S
C2383      F2387   1.385       .  S
C2383      F2388   1.377       .  S
C2383      F2389   1.382       .  S
C2386      F2390   1.380       .  S
C2386      F2391   1.378       .  S
C2386      F2392   1.380       .  S
C2393      C2394   1.394       .  A
C2393      C2398   1.388       .  A
C2393      H2400   1.078       .  S
C2394      C2395   1.415       .  A
C2395      C2396   1.416       .  A
C2395      C2402   1.514       .  S
C2396      C2397   1.413       .  A
C2396      H2401   1.083       .  S
C2397      C2398   1.411       .  A
C2398      C2399   1.522       .  S
C2399      F2403   1.384       .  S
C2399      F2404   1.379       .  S
C2399      F2405   1.384       .  S
C2402      F2406   1.383   1_554  S
C2402      F2407   1.382       .  S
C2402      F2408   1.384       .  S
C2409      C2410   1.374       .  A
C2409      C2414   1.375       .  A
C2409      H2416   1.080       .  S
C2410      C2411   1.410       .  A
C2411      C2412   1.399       .  A
C2411      C2418   1.517   1_455  S
C2412      C2413   1.400       .  A
C2412      H2417   1.082       .  S
C2413      C2414   1.418       .  A
C2414      C2415   1.500       .  S
C2415      F2419   1.383       .  S
C2415      F2420   1.377       .  S
C2415      F2421   1.378       .  S
C2418      F2422   1.382       .  S
C2418      F2423   1.383       .  S
C2418      F2424   1.384       .  S
C2425      C2426   1.403   1_655  A
C2425      C2430   1.405       .  A
C2425      H2432   1.073       .  S
C2426      C2427   1.431       .  A
C2427      C2428   1.419       .  A
C2427      C2434   1.517       .  S
C2428      C2429   1.414       .  A
C2428      H2433   1.079       .  S
C2429      C2430   1.420   1_455  A
C2430      C2431   1.519       .  S
C2431      F2435   1.386       .  S
C2431      F2436   1.377       .  S
C2431      F2437   1.372   1_554  S
C2434      F2438   1.382       .  S
C2434      F2439   1.382       .  S
C2434      F2440   1.385       .  S
C2441      C2442   1.404       .  A
C2441      C2446   1.404       .  A
C2441      H2448   1.084       .  S
C2442      C2443   1.427       .  A
C2443      C2444   1.426       .  A
C2443      C2450   1.516       .  S
C2444      C2445   1.412       .  A
C2444      H2449   1.079       .  S
C2445      C2446   1.427       .  A
C2446      C2447   1.513       .  S
C2447      F2451   1.384       .  S
C2447      F2452   1.364       .  S
C2447      F2453   1.381       .  S
C2450      F2454   1.382       .  S
C2450      F2455   1.380       .  S
C2450      F2456   1.385       .  S
C2457      C2458   1.416       .  A
C2457      C2462   1.436       .  A
C2457      H2464   1.082       .  S
C2458      C2459   1.433       .  A
C2459      C2460   1.417       .  A
C2459      C2466   1.520       .  S
C2460      C2461   1.409       .  A
C2460      H2465   1.084       .  S
C2461      C2462   1.428       .  A
C2462      C2463   1.516       .  S
C2463      F2467   1.385       .  S
C2463      F2468   1.382       .  S
C2463      F2469   1.383       .  S
C2466      F2470   1.384       .  S
C2466      F2471   1.379       .  S
C2466      F2472   1.383       .  S
C2473      C2474   1.396       .  A
C2473      C2478   1.377       .  A
C2473      H2480   1.071       .  S
C2474      C2475   1.409       .  A
C2475      C2476   1.409       .  A
C2475      C2482   1.514       .  S
C2476      C2477   1.411       .  A
C2476      H2481   1.083   1_554  S
C2477      C2478   1.430       .  A
C2478      C2479   1.546       .  S
C2479      F2483   1.386       .  S
C2479      F2484   1.373       .  S
C2479      F2485   1.370       .  S
C2482      F2486   1.384   1_554  S
C2482      F2487   1.382       .  S
C2482      F2488   1.384   1_554  S
C2489      C2490   1.395       .  A
C2489      C2494   1.379       .  A
C2489      H2496   1.081       .  S
C2490      C2491   1.407       .  A
C2491      C2492   1.400       .  A
C2491      C2498   1.515       .  S
C2492      C2493   1.401       .  A
C2492      H2497   1.083   1_556  S
C2493      C2494   1.397       .  A
C2494      C2495   1.501       .  S
C2495      F2499   1.382       .  S
C2495      F2500   1.380       .  S
C2495      F2501   1.380       .  S
C2498      F2502   1.382       .  S
C2498      F2503   1.383       .  S
C2498      F2504   1.385   1_556  S
C2505      C2506   1.386       .  A
C2505      C2510   1.373       .  A
C2505      H2512   1.085       .  S
C2506      C2507   1.416       .  A
C2507      C2508   1.403       .  A
C2507      C2514   1.518       .  S
C2508      C2509   1.405       .  A
C2508      H2513   1.083       .  S
C2509      C2510   1.425       .  A
C2510      C2511   1.521       .  S
C2511      F2515   1.385       .  S
C2511      F2516   1.371       .  S
C2511      F2517   1.383       .  S
C2514      F2518   1.384       .  S
C2514      F2519   1.384       .  S
C2514      F2520   1.384       .  S
C2521      C2522   1.380       .  A
C2521      C2526   1.362       .  A
C2521      H2528   1.059       .  S
C2522      C2523   1.410       .  A
C2523      C2524   1.413       .  A
C2523      C2530   1.514       .  S
C2524      C2525   1.414       .  A
C2524      H2529   1.083       .  S
C2525      C2526   1.428       .  A
C2526      C2527   1.540       .  S
C2527      F2531   1.387       .  S
C2527      F2532   1.381       .  S
C2527      F2533   1.377       .  S
C2530      F2534   1.381       .  S
C2530      F2535   1.383       .  S
C2530      F2536   1.385       .  S
C2537      C2538   1.404       .  A
C2537      C2542   1.409       .  A
C2537      H2544   1.084       .  S
C2538      C2539   1.432       .  A
C2539      C2540   1.414       .  A
C2539      C2546   1.518       .  S
C2540      C2541   1.400       .  A
C2540      H2545   1.083       .  S
C2541      C2542   1.431       .  A
C2542      C2543   1.520       .  S
C2543      F2547   1.381       .  S
C2543      F2548   1.377       .  S
C2543      F2549   1.384       .  S
C2546      F2550   1.385       .  S
C2546      F2551   1.384       .  S
C2546      F2552   1.380       .  S
C2553      C2554   1.401       .  A
C2553      C2558   1.429       .  A
C2553      H2560   1.083       .  S
C2554      C2555   1.414       .  A
C2555      C2556   1.410       .  A
C2555      C2562   1.509       .  S
C2556      C2557   1.418       .  A
C2556      H2561   1.056       .  S
C2557      C2558   1.450       .  A
C2558      C2559   1.512       .  S
C2559      F2563   1.386       .  S
C2559      F2564   1.379       .  S
C2559      F2565   1.372       .  S
C2562      F2566   1.372       .  S
C2562      F2567   1.383       .  S
C2562      F2568   1.380       .  S
C2569      C2570   1.411   1_556  A
C2569      C2574   1.414       .  A
C2569      H2576   1.084       .  S
C2570      C2571   1.430       .  A
C2571      C2572   1.428       .  A
C2571      C2578   1.506       .  S
C2572      C2573   1.408       .  A
C2572      H2577   1.083       .  S
C2573      C2574   1.427   1_554  A
C2574      C2575   1.520   1_565  S
C2575      F2579   1.383       .  S
C2575      F2580   1.376       .  S
C2575      F2581   1.384       .  S
C2578      F2582   1.376       .  S
C2578      F2583   1.381       .  S
C2578      F2584   1.385       .  S
C2585      C2586   1.410       .  A
C2585      C2590   1.412       .  A
C2585      H2592   1.083       .  S
C2586      C2587   1.436       .  A
C2587      C2588   1.380       .  A
C2587      C2594   1.529       .  S
C2588      C2589   1.384       .  A
C2588      H2593   1.073       .  S
C2589      C2590   1.412       .  A
C2590      C2591   1.515       .  S
C2591      F2595   1.384       .  S
C2591      F2596   1.383       .  S
C2591      F2597   1.383       .  S
C2594      F2598   1.368       .  S
C2594      F2599   1.377       .  S
C2594      F2600   1.380       .  S
C2601      C2602   1.404   1_455  A
C2601      C2606   1.408   1_455  A
C2601      H2608   1.083       .  S
C2602      C2603   1.399       .  A
C2603      C2604   1.381       .  A
C2603      C2610   1.498       .  S
C2604      C2605   1.395       .  A
C2604      H2609   1.080       .  S
C2605      C2606   1.407       .  A
C2606      C2607   1.512   1_655  S
C2607      F2611   1.384       .  S
C2607      F2612   1.383       .  S
C2607      F2613   1.383       .  S
C2610      F2614   1.378       .  S
C2610      F2615   1.380       .  S
C2610      F2616   1.383       .  S
C2617      C2618   1.399       .  A
C2617      C2622   1.398       .  A
C2617      H2624   1.083       .  S
C2618      C2619   1.414       .  A
C2619      C2620   1.386       .  A
C2619      C2626   1.510       .  S
C2620      C2621   1.385       .  A
C2620      H2625   1.078       .  S
C2621      C2622   1.410       .  A
C2622      C2623   1.516       .  S
C2623      F2627   1.384       .  S
C2623      F2628   1.374       .  S
C2623      F2629   1.383       .  S
C2626      F2630   1.373       .  S
C2626      F2631   1.380       .  S
C2626      F2632   1.384       .  S
C2633      C2634   1.402       .  A
C2633      C2638   1.402       .  A
C2633      H2640   1.083       .  S
C2634      C2635   1.421       .  A
C2635      C2636   1.387       .  A
C2635      C2642   1.503       .  S
C2636      C2637   1.380       .  A
C2636      H2641   1.077       .  S
C2637      C2638   1.408       .  A
C2638      C2639   1.514       .  S
C2639      F2643   1.385       .  S
C2639      F2644   1.382       .  S
C2639      F2645   1.382       .  S
C2642      F2646   1.377       .  S
C2642      F2647   1.379       .  S
C2642      F2648   1.384       .  S
C2649      C2650   1.408       .  A
C2649      C2654   1.405       .  A
C2649      H2656   1.084       .  S
C2650      C2651   1.430       .  A
C2651      C2652   1.424       .  A
C2651      C2658   1.511       .  S
C2652      C2653   1.408       .  A
C2652      H2657   1.082       .  S
C2653      C2654   1.425       .  A
C2654      C2655   1.516       .  S
C2655      F2659   1.381       .  S
C2655      F2660   1.373       .  S
C2655      F2661   1.382       .  S
C2658      F2662   1.377       .  S
C2658      F2663   1.380       .  S
C2658      F2664   1.385       .  S
C2665      C2666   1.405       .  A
C2665      C2670   1.410       .  A
C2665      H2672   1.080       .  S
C2666      C2667   1.428       .  A
C2667      C2668   1.419       .  A
C2667      C2674   1.518   1_455  S
C2668      C2669   1.412       .  A
C2668      H2673   1.085   1_455  S
C2669      C2670   1.423       .  A
C2670      C2671   1.503       .  S
C2671      F2675   1.385       .  S
C2671      F2676   1.376       .  S
C2671      F2677   1.383       .  S
C2674      F2678   1.384       .  S
C2674      F2679   1.374       .  S
C2674      F2680   1.381   1_655  S
C2681      C2682   1.408       .  A
C2681      C2686   1.413       .  A
C2681      H2688   1.083       .  S
C2682      C2683   1.431       .  A
C2683      C2684   1.408       .  A
C2683      C2690   1.507       .  S
C2684      C2685   1.397       .  A
C2684      H2689   1.080       .  S
C2685      C2686   1.422       .  A
C2686      C2687   1.518       .  S
C2687      F2691   1.383       .  S
C2687      F2692   1.383       .  S
C2687      F2693   1.378       .  S
C2690      F2694   1.383       .  S
C2690      F2695   1.374       .  S
C2690      F2696   1.385       .  S
C2697      C2698   1.408       .  A
C2697      C2702   1.417       .  A
C2697      H2704   1.083       .  S
C2698      C2699   1.424       .  A
C2699      C2700   1.417       .  A
C2699      C2706   1.515       .  S
C2700      C2701   1.413       .  A
C2700      H2705   1.081       .  S
C2701      C2702   1.425       .  A
C2702      C2703   1.518       .  S
C2703      F2707   1.385       .  S
C2703      F2708   1.383       .  S
C2703      F2709   1.383       .  S
C2706      F2710   1.374       .  S
C2706      F2711   1.381       .  S
C2706      F2712   1.383       .  S
C2713      C2714   1.410       .  A
C2713      C2718   1.419       .  A
C2713      H2720   1.084       .  S
C2714      C2715   1.430       .  A
C2715      C2716   1.414       .  A
C2715      C2722   1.524       .  S
C2716      C2717   1.404       .  A
C2716      H2721   1.082       .  S
C2717      C2718   1.423       .  A
C2718      C2719   1.513       .  S
C2719      F2723   1.383       .  S
C2719      F2724   1.379       .  S
C2719      F2725   1.383       .  S
C2722      F2726   1.383       .  S
C2722      F2727   1.384       .  S
C2722      F2728   1.385       .  S
C2729      C2730   1.414       .  A
C2729      C2734   1.423       .  A
C2729      H2736   1.083       .  S
C2730      C2731   1.431       .  A
C2731      C2732   1.423       .  A
C2731      C2738   1.520   1_565  S
C2732      C2733   1.408       .  A
C2732      H2737   1.082   1_455  S
C2733      C2734   1.424       .  A
C2734      C2735   1.514       .  S
C2735      F2739   1.377       .  S
C2735      F2740   1.375       .  S
C2735      F2741   1.383       .  S
C2738      F2742   1.384       .  S
C2738      F2743   1.383   1_545  S
C2738      F2744   1.384   1_455  S
C2745      C2746   1.407       .  A
C2745      C2750   1.419       .  A
C2745      H2752   1.079       .  S
C2746      C2747   1.425   1_455  A
C2747      C2748   1.413       .  A
C2747      C2754   1.521       .  S
C2748      C2749   1.407   1_655  A
C2748      H2753   1.084       .  S
C2749      C2750   1.425       .  A
C2750      C2751   1.517       .  S
C2751      F2755   1.385       .  S
C2751      F2756   1.383       .  S
C2751      F2757   1.382       .  S
C2754      F2758   1.383       .  S
C2754      F2759   1.380       .  S
C2754      F2760   1.383       .  S
C2761      C2762   1.405   1_455  A
C2761      C2766   1.413       .  A
C2761      H2768   1.084       .  S
C2762      C2763   1.432       .  A
C2763      C2764   1.418       .  A
C2763      C2770   1.520       .  S
C2764      C2765   1.404       .  A
C2764      H2769   1.082       .  S
C2765      C2766   1.428   1_655  A
C2766      C2767   1.517       .  S
C2767      F2771   1.384       .  S
C2767      F2772   1.383       .  S
C2767      F2773   1.377       .  S
C2770      F2774   1.383       .  S
C2770      F2775   1.384       .  S
C2770      F2776   1.385       .  S
C2777      C2778   1.409       .  A
C2777      C2782   1.420       .  A
C2777      H2784   1.083       .  S
C2778      C2779   1.402       .  A
C2779      C2780   1.372       .  A
C2779      C2786   1.507       .  S
C2780      C2781   1.388       .  A
C2780      H2785   1.077       .  S
C2781      C2782   1.423       .  A
C2782      C2783   1.513   1_655  S
C2783      F2787   1.384       .  S
C2783      F2788   1.382       .  S
C2783      F2789   1.383       .  S
C2786      F2790   1.369       .  S
C2786      F2791   1.381       .  S
C2786      F2792   1.384       .  S
C2793      C2794   1.380       .  A
C2793      C2798   1.373       .  A
C2793      H2800   1.068       .  S
C2794      C2795   1.414       .  A
C2795      C2796   1.412       .  A
C2795      C2802   1.513       .  S
C2796      C2797   1.410       .  A
C2796      H2801   1.082       .  S
C2797      C2798   1.429       .  A
C2798      C2799   1.532       .  S
C2799      F2803   1.385       .  S
C2799      F2804   1.381       .  S
C2799      F2805   1.382       .  S
C2802      F2806   1.383   1_545  S
C2802      F2807   1.383       .  S
C2802      F2808   1.384   1_545  S
C2809      C2810   1.382       .  A
C2809      C2814   1.368       .  A
C2809      H2816   1.066       .  S
C2810      C2811   1.421       .  A
C2811      C2812   1.419       .  A
C2811      C2818   1.513       .  S
C2812      C2813   1.412       .  A
C2812      H2817   1.082       .  S
C2813      C2814   1.403       .  A
C2814      C2815   1.507       .  S
C2815      F2819   1.385       .  S
C2815      F2820   1.380       .  S
C2815      F2821   1.376       .  S
C2818      F2822   1.383   1_565  S
C2818      F2823   1.383       .  S
C2818      F2824   1.384   1_565  S
C2825      C2826   1.406       .  A
C2825      C2830   1.412       .  A
C2825      H2832   1.083       .  S
C2826      C2827   1.412       .  A
C2827      C2828   1.371       .  A
C2827      C2834   1.511       .  S
C2828      C2829   1.384       .  A
C2828      H2833   1.077       .  S
C2829      C2830   1.422       .  A
C2830      C2831   1.512   1_655  S
C2831      F2835   1.384       .  S
C2831      F2836   1.383       .  S
C2831      F2837   1.383       .  S
C2834      F2838   1.377       .  S
C2834      F2839   1.383       .  S
C2834      F2840   1.383       .  S
C2841      C2842   1.409       .  A
C2841      C2846   1.414       .  A
C2841      H2848   1.082       .  S
C2842      C2843   1.441       .  A
C2843      C2844   1.409       .  A
C2843      C2850   1.528       .  S
C2844      C2845   1.391       .  A
C2844      H2849   1.077       .  S
C2845      C2846   1.421       .  A
C2846      C2847   1.522       .  S
C2847      F2851   1.385       .  S
C2847      F2852   1.376       .  S
C2847      F2853   1.379       .  S
C2850      F2854   1.375       .  S
C2850      F2855   1.368       .  S
C2850      F2856   1.384       .  S
C2857      C2858   1.412       .  A
C2857      C2862   1.413       .  A
C2857      H2864   1.084       .  S
C2858      C2859   1.424       .  A
C2859      C2860   1.413       .  A
C2859      C2866   1.510       .  S
C2860      C2861   1.411       .  A
C2860      H2865   1.064       .  S
C2861      C2862   1.415       .  A
C2862      C2863   1.524       .  S
C2863      F2867   1.386       .  S
C2863      F2868   1.372       .  S
C2863      F2869   1.377       .  S
C2866      F2870   1.381       .  S
C2866      F2871   1.375       .  S
C2866      F2872   1.384       .  S
C2873      C2874   1.398       .  A
C2873      C2878   1.412       .  A
C2873      H2880   1.081       .  S
C2874      C2875   1.425       .  A
C2875      C2876   1.412       .  A
C2875      C2882   1.520   1_645  S
C2876      C2877   1.408       .  A
C2876      H2881   1.084   1_545  S
C2877      C2878   1.436       .  A
C2878      C2879   1.519       .  S
C2879      F2883   1.385       .  S
C2879      F2884   1.366       .  S
C2879      F2885   1.374       .  S
C2882      F2886   1.384       .  S
C2882      F2887   1.378       .  S
C2882      F2888   1.383   1_565  S
C2889      C2890   1.378       .  A
C2889      C2894   1.376       .  A
C2889      H2896   1.068       .  S
C2890      C2891   1.411       .  A
C2891      C2892   1.408       .  A
C2891      C2898   1.514       .  S
C2892      C2893   1.408       .  A
C2892      H2897   1.083       .  S
C2893      C2894   1.432       .  A
C2894      C2895   1.531       .  S
C2895      F2899   1.377       .  S
C2895      F2900   1.376       .  S
C2895      F2901   1.378       .  S
C2898      F2902   1.382       .  S
C2898      F2903   1.384   1_556  S
C2898      F2904   1.384   1_556  S
C2905      C2906   1.397       .  A
C2905      C2910   1.391       .  A
C2905      H2912   1.084   1_455  S
C2906      C2907   1.413       .  A
C2907      C2908   1.397       .  A
C2907      C2914   1.511       .  S
C2908      C2909   1.397       .  A
C2908      H2913   1.081       .  S
C2909      C2910   1.408       .  A
C2910      C2911   1.507       .  S
C2911      F2915   1.383   1_455  S
C2911      F2916   1.379       .  S
C2911      F2917   1.379       .  S
C2914      F2918   1.369       .  S
C2914      F2919   1.382   1_455  S
C2914      F2920   1.384       .  S
C2921      C2922   1.395       .  A
C2921      C2926   1.401       .  A
C2921      H2928   1.083   1_655  S
C2922      C2923   1.396       .  A
C2923      C2924   1.384       .  A
C2923      C2930   1.501       .  S
C2924      C2925   1.397       .  A
C2924      H2929   1.081       .  S
C2925      C2926   1.415       .  A
C2926      C2927   1.505   1_655  S
C2927      F2931   1.385       .  S
C2927      F2932   1.371   1_455  S
C2927      F2933   1.383       .  S
C2930      F2934   1.379       .  S
C2930      F2935   1.380       .  S
C2930      F2936   1.383       .  S
C2937      C2938   1.381       .  A
C2937      C2942   1.383       .  A
C2937      H2944   1.076       .  S
C2938      C2939   1.410       .  A
C2939      C2940   1.397       .  A
C2939      C2946   1.509   1_556  S
C2940      C2941   1.397       .  A
C2940      H2945   1.085       .  S
C2941      C2942   1.414       .  A
C2942      C2943   1.504       .  S
C2943      F2947   1.381       .  S
C2943      F2948   1.379       .  S
C2943      F2949   1.380       .  S
C2946      F2950   1.382       .  S
C2946      F2951   1.383       .  S
C2946      F2952   1.375       .  S
C2953      C2954   1.398       .  A
C2953      C2958   1.396       .  A
C2953      H2960   1.078       .  S
C2954      C2955   1.425       .  A
C2955      C2956   1.428       .  A
C2955      C2962   1.517       .  S
C2956      C2957   1.416       .  A
C2956      H2961   1.079       .  S
C2957      C2958   1.425       .  A
C2958      C2959   1.512       .  S
C2959      F2963   1.383       .  S
C2959      F2964   1.359       .  S
C2959      F2965   1.385       .  S
C2962      F2966   1.383       .  S
C2962      F2967   1.383       .  S
C2962      F2968   1.385       .  S
C2969      C2970   1.411   1_655  A
C2969      C2974   1.416       .  A
C2969      H2976   1.084       .  S
C2970      C2971   1.430       .  A
C2971      C2972   1.425       .  A
C2971      C2978   1.515       .  S
C2972      C2973   1.408       .  A
C2972      H2977   1.081       .  S
C2973      C2974   1.427   1_455  A
C2974      C2975   1.519   1_556  S
C2975      F2979   1.383   1_554  S
C2975      F2980   1.378       .  S
C2975      F2981   1.383       .  S
C2978      F2982   1.380   1_455  S
C2978      F2983   1.380       .  S
C2978      F2984   1.385       .  S
C2985      C2986   1.407       .  A
C2985      C2990   1.403       .  A
C2985      H2992   1.084       .  S
C2986      C2987   1.424       .  A
C2987      C2988   1.412       .  A
C2987      C2994   1.521       .  S
C2988      C2989   1.407       .  A
C2988      H2993   1.079       .  S
C2989      C2990   1.419       .  A
C2990      C2991   1.510       .  S
C2991      F2995   1.379       .  S
C2991      F2996   1.373       .  S
C2991      F2997   1.380       .  S
C2994      F2998   1.383       .  S
C2994      F2999   1.377       .  S
C2994      F3000   1.385       .  S
C3001      C3002   1.409       .  A
C3001      C3006   1.422       .  A
C3001      H3008   1.083   1_554  S
C3002      C3003   1.420       .  A
C3003      C3004   1.415       .  A
C3003      C3010   1.511       .  S
C3004      C3005   1.411       .  A
C3004      H3009   1.079       .  S
C3005      C3006   1.427       .  A
C3006      C3007   1.517   1_554  S
C3007      F3011   1.385   1_545  S
C3007      F3012   1.382       .  S
C3007      F3013   1.383   1_556  S
C3010      F3014   1.371       .  S
C3010      F3015   1.384       .  S
C3010      F3016   1.380       .  S
C3017      C3018   1.405   1_565  A
C3017      C3022   1.419       .  A
C3017      H3024   1.084       .  S
C3018      C3019   1.432       .  A
C3019      C3020   1.422       .  A
C3019      C3026   1.522       .  S
C3020      C3021   1.409       .  A
C3020      H3025   1.076       .  S
C3021      C3022   1.430   1_545  A
C3022      C3023   1.512   1_455  S
C3023      F3027   1.383   1_655  S
C3023      F3028   1.384       .  S
C3023      F3029   1.375       .  S
C3026      F3030   1.382       .  S
C3026      F3031   1.382       .  S
C3026      F3032   1.385       .  S
C3033      C3034   1.415       .  A
C3033      C3038   1.422       .  A
C3033      H3040   1.070       .  S
C3034      C3035   1.425       .  A
C3035      C3036   1.419       .  A
C3035      C3042   1.509   1_454  S
C3036      C3037   1.410       .  A
C3036      H3041   1.082       .  S
C3037      C3038   1.421       .  A
C3038      C3039   1.517       .  S
C3039      F3043   1.384       .  S
C3039      F3044   1.382       .  S
C3039      F3045   1.382   1_455  S
C3042      F3046   1.378   1_655  S
C3042      F3047   1.382       .  S
C3042      F3048   1.385       .  S
C3049      C3050   1.411   1_554  A
C3049      C3054   1.408       .  A
C3049      H3056   1.079       .  S
C3050      C3051   1.435       .  A
C3051      C3052   1.433       .  A
C3051      C3058   1.515   1_565  S
C3052      C3053   1.423       .  A
C3052      H3057   1.071   1_565  S
C3053      C3054   1.410   1_556  A
C3054      C3055   1.526       .  S
C3055      F3059   1.377       .  S
C3055      F3060   1.380       .  S
C3055      F3061   1.386       .  S
C3058      F3062   1.377   1_545  S
C3058      F3063   1.384       .  S
C3058      F3064   1.383       .  S
C3065      C3066   1.406   1_545  A
C3065      C3070   1.409       .  A
C3065      H3072   1.084       .  S
C3066      C3067   1.441       .  A
C3067      C3068   1.417       .  A
C3067      C3074   1.527       .  S
C3068      C3069   1.399       .  A
C3068      H3073   1.082       .  S
C3069      C3070   1.428   1_565  A
C3070      C3071   1.521   1_655  S
C3071      F3075   1.383       .  S
C3071      F3076   1.378       .  S
C3071      F3077   1.384       .  S
C3074      F3078   1.369       .  S
C3074      F3079   1.374       .  S
C3074      F3080   1.385       .  S
C3081      C3082   1.406   1_455  A
C3081      C3086   1.409       .  A
C3081      H3088   1.085       .  S
C3082      C3083   1.423       .  A
C3083      C3084   1.420       .  A
C3083      C3090   1.517       .  S
C3084      C3085   1.408       .  A
C3084      H3089   1.083       .  S
C3085      C3086   1.429   1_655  A
C3086      C3087   1.524       .  S
C3087      F3091   1.383   1_556  S
C3087      F3092   1.383       .  S
C3087      F3093   1.379   1_556  S
C3090      F3094   1.382       .  S
C3090      F3095   1.384       .  S
C3090      F3096   1.385       .  S
