geometry optimzed in LAMMPS
_audit_creation_date              2020-11-30 
_audit_creation_method            'lammps2cif' 
_symmetry_space_group_name_H-M    'P1' 
_symmetry_Int_Tables_number       1 
_symmetry_cell_setting            triclinic 
loop_ 
_symmetry_equiv_pos_as_xyz 
  x,y,z 
_cell_length_a                    31.93881292 
_cell_length_b                    31.75615112754464 
_cell_length_c                    32.17083335985403 
_cell_angle_alpha                 89.66263796934396 
_cell_angle_beta                  89.93246083857684 
_cell_angle_gamma                 90.02235686755394 
loop_ 
_atom_site_label 
_atom_site_type_symbol 
_atom_site_fract_x 
_atom_site_fract_y 
_atom_site_fract_z 
_atom_site_charge 
C1          C  0.53983014  0.66191010  0.96962519     0.05100
C2          C  0.54169687  0.61767157  0.97272982    -0.11000
C3          C  0.50466549  0.59354891  0.97257639     0.02600
C4          C  0.46583658  0.61417655  0.96903229    -0.09500
C5          C  0.46366350  0.65831905  0.96625340     0.05100
C6          C  0.50077790  0.68177201  0.96711731    -0.09000
H7          H  0.57181645  0.60205251  0.97432823     0.10700
H8          H  0.43728332  0.59569827  0.96796135     0.08200
H9          H  0.49935728  0.71575451  0.96481059     0.08100
C10         C  0.46335237  0.20640546  0.98656054     0.05100
C11         C  0.50187742  0.18585633  0.98295839    -0.11000
C12         C  0.53908031  0.20868944  0.97855522     0.02600
C13         C  0.53778080  0.25284226  0.97908677    -0.09500
C14         C  0.49950834  0.27432397  0.98316601     0.05100
C15         C  0.46210238  0.25080968  0.98669754    -0.09000
H16         H  0.50274774  0.15172467  0.98265737     0.10700
H17         H  0.56657641  0.27059617  0.97563264     0.09700
H18         H  0.43222655  0.26689377  0.98873225     0.08100
C19         C  0.71919420  0.92089599  0.47633247     0.05100
C20         C  0.73997875  0.91860024  0.43805101    -0.11000
C21         C  0.71797276  0.91949510  0.40039425     0.02600
C22         C  0.67401979  0.92318514  0.40123618    -0.09500
C23         C  0.65213602  0.92615054  0.43924618     0.05100
C24         C  0.67516990  0.92502266  0.47677129    -0.09000
H25         H  0.77389369  0.91745663  0.43756942     0.10700
H26         H  0.65682503  0.92418785  0.37220841     0.08200
H27         H  0.65887280  0.92673874  0.50620522     0.08100
C28         C  0.26806633  0.95389464  0.47708527     0.05100
C29         C  0.31213913  0.95132202  0.47650721    -0.11000
C30         C  0.33436470  0.95126664  0.43856159     0.02600
C31         C  0.31167815  0.95257486  0.40090641    -0.09500
C32         C  0.26756494  0.95486620  0.40121653     0.05100
C33         C  0.24656954  0.95679484  0.43930656    -0.09000
H34         H  0.32921735  0.94882141  0.50549216     0.10700
H35         H  0.32823299  0.95109995  0.37155900     0.08200
H36         H  0.21273879  0.95910388  0.43947417     0.08100
O37         O  0.80559439  0.89132339  0.92050609    -0.70900
O38         O  0.81838947  0.01581048  0.93730159    -0.71900
O39         O  0.81819483  0.96179270  0.86829627    -0.60500
O40         O  0.80836315  0.94616745  0.98924260    -0.69000
O41         O  0.87686895  0.93861938  0.99563452    -0.68500
O42         O  0.88699095  0.95454942  0.87116284    -0.59800
O43         O  0.88695485  0.00958929  0.94227348    -0.72300
O44         O  0.87408195  0.88268716  0.92455704    -0.71100
Cu45       Cu  0.81050646  0.95384378  0.92868155     1.04600
Cu46       Cu  0.88382734  0.94587933  0.93356244     1.04300
C47         C  0.83744932  0.86711809  0.91900950     0.95300
C48         C  0.85411072  0.03270336  0.94331904     0.94400
C49         C  0.85378071  0.96128208  0.85019517     0.86500
C50         C  0.84068999  0.94160620  0.01208322     0.92800
N51         N  0.86141634  0.93845147  0.08962909    -0.01500
C52         C  0.83666373  0.93934092  0.12429755     0.01100
C53         C  0.79504167  0.94376122  0.11432163    -0.21800
C54         C  0.79300018  0.94494546  0.07225791    -0.22000
C55         C  0.83356025  0.94124790  0.05738273     0.01000
H56         H  0.76877668  0.94446655  0.13561593     0.14800
H57         H  0.76447246  0.94766886  0.05428493     0.14800
N58         N  0.85622985  0.07742354  0.95265855    -0.01500
C59         C  0.82253029  0.10286464  0.95914771     0.01100
C60         C  0.83431519  0.14316630  0.96932441    -0.21800
C61         C  0.87680571  0.14359205  0.96905298    -0.22000
C62         C  0.88986004  0.10341967  0.95870199     0.01000
H63         H  0.81392443  0.16960503  0.97564612     0.14800
H64         H  0.89626964  0.17074703  0.97535942     0.14800
O65         O  0.00086313  0.87220467  0.81802557    -0.70900
O66         O  0.01283384  0.99861903  0.82579771    -0.71900
O67         O  0.94273575  0.94232172  0.81532681    -0.60500
O68         O  0.07028740  0.92916556  0.82560748    -0.69000
O69         O  0.07367112  0.93331182  0.75720523    -0.68500
O70         O  0.94890711  0.94612005  0.74706450    -0.59800
O71         O  0.01789818  0.00112254  0.75724759    -0.72300
O72         O  0.00592404  0.87797935  0.74970742    -0.71100
Cu73       Cu  0.00625752  0.93533346  0.82377983     1.04600
Cu74       Cu  0.01164031  0.93969562  0.75068484     1.04300
C75         C  0.00252240  0.85514106  0.78231570     0.95300
C76         C  0.01838285  0.01962985  0.79237056     0.94400
C77         C  0.92578949  0.94709201  0.77943079     0.86500
C78         C  0.09215951  0.92945019  0.79216822     0.92800
N79         N  0.01651641  0.09526025  0.82057380    -0.01500
C80         C  0.02377745  0.13266593  0.80062885     0.01100
C81         C  0.03982892  0.12630530  0.76137552    -0.21800
C82         C  0.04152822  0.08401880  0.75575481    -0.22000
C83         C  0.02661331  0.06535753  0.79180601     0.01000
H84         H  0.04576022  0.15005845  0.73779547     0.14800
H85         H  0.05051567  0.06849647  0.72723383     0.14800
N86         N  0.13754202  0.92560923  0.79268403    -0.01500
C87         C  0.16256008  0.92681460  0.75825206     0.01100
C88         C  0.20412595  0.92191961  0.76814391    -0.21800
C89         C  0.20582474  0.91748275  0.81002513    -0.22000
C90         C  0.16510996  0.91975883  0.82482673     0.01000
H91         H  0.23043986  0.92166841  0.74689196     0.14800
H92         H  0.23420711  0.91312278  0.82794036     0.14800
O93         O  0.11175450  0.85095307  0.94674055    -0.70900
O94         O  0.12636222  0.97905516  0.95136282    -0.71900
O95         O  0.12157367  0.91833495  0.88650701    -0.60500
O96         O  0.11380777  0.91084372  0.01159274    -0.69000
O97         O  0.18251017  0.90270741  0.01452082    -0.68500
O98         O  0.19019045  0.91166166  0.89276773    -0.59800
O99         O  0.19475415  0.97052891  0.95695300    -0.72300
O100        O  0.18044403  0.84492510  0.95010780    -0.71100
Cu101      Cu  0.11579110  0.91529077  0.94903482     1.04600
Cu102      Cu  0.18911394  0.90736274  0.95378761     1.04300
C103        C  0.14440914  0.82760405  0.94853420     0.95300
C104        C  0.16325890  0.99498690  0.95303381     0.94400
C105        C  0.15779586  0.91641432  0.87001070     0.86500
C106        C  0.14684420  0.90300293  0.03241205     0.92800
O107        O  0.97982641  0.86181548  0.05456031    -0.70900
O108        O  0.00412453  0.98606934  0.06203401    -0.71900
O109        O  0.05476489  0.91246330  0.06448099    -0.60500
O110        O  0.92843504  0.93473318  0.05614285    -0.69000
O111        O  0.92545615  0.93099623  0.12457973    -0.68500
O112        O  0.04819546  0.90995914  0.13274892    -0.59800
O113        O  0.99844465  0.98152637  0.13044526    -0.72300
O114        O  0.97572373  0.85972150  0.12317264    -0.71100
Cu115      Cu  0.99198650  0.92402898  0.05666964     1.04600
Cu116      Cu  0.98676992  0.92052053  0.12983908     1.04300
C117        C  0.97258601  0.84147663  0.08800395     0.95300
C118        C  0.00680464  0.00293678  0.09773881     0.94400
C119        C  0.07137716  0.90823547  0.10056567     0.86500
C120        C  0.90678650  0.93474646  0.08978087     0.92800
O121        O  0.07329949  0.03999023  0.94247432    -0.70900
O122        O  0.94915291  0.05763138  0.95032402    -0.71900
O123        O  0.00855474  0.05463443  0.88297942    -0.60500
O124        O  0.01438016  0.04656845  0.01030180    -0.69000
O125        O  0.02487453  0.11521062  0.01214856    -0.68500
O126        O  0.01664328  0.12349512  0.88789971    -0.59800
O127        O  0.95965875  0.12628014  0.95471920    -0.72300
O128        O  0.08174158  0.10916537  0.94462875    -0.71100
Cu129      Cu  0.01086365  0.04713233  0.94648449     1.04600
Cu130      Cu  0.02097513  0.12072592  0.95006423     1.04300
C131        C  0.09702036  0.07218169  0.94090569     0.95300
C132        C  0.93483745  0.09477145  0.95407419     0.94400
C133        C  0.01263859  0.09078883  0.86539713     0.86500
C134        C  0.02065794  0.08018582  0.03133340     0.92800
N135        N  0.02503353  0.07923480  0.07635206    -0.01500
C136        C  0.03797274  0.11229804  0.10016207     0.01100
C137        C  0.04458090  0.09999667  0.14076728    -0.21800
C138        C  0.03452346  0.05855776  0.14315567    -0.22000
C139        C  0.02209947  0.04627943  0.10386086     0.01000
H140        H  0.05281133  0.11999091  0.16667324     0.14800
H141        H  0.03498429  0.03956561  0.17122475     0.14800
N142        N  0.11554642  0.89908347  0.10591333    -0.01500
C143        C  0.13357574  0.88862093  0.14299679     0.01100
C144        C  0.17317676  0.87247550  0.13708053    -0.21800
C145        C  0.18106116  0.87463133  0.09558024    -0.22000
C146        C  0.14592601  0.89180986  0.07694520     0.01000
H147        H  0.19584917  0.86444749  0.16107414     0.14800
H148        H  0.21052167  0.86664440  0.08075031     0.14800
N149        N  0.17029754  0.03967648  0.94560226    -0.01500
C150        C  0.20840856  0.05687199  0.93616668     0.01100
C151        C  0.20388736  0.09467539  0.91527783    -0.21800
C152        C  0.16217643  0.10246814  0.91286551    -0.22000
C153        C  0.14208927  0.06901942  0.93191088     0.01000
H154        H  0.22855458  0.11652367  0.90684572     0.14800
H155        H  0.14799357  0.13094510  0.90072168     0.14800
O156        O  0.03806705  0.73362548  0.94137666    -0.70900
O157        O  0.91767941  0.75184733  0.91731210    -0.71900
O158        O  0.98855810  0.74286014  0.86879880    -0.60500
O159        O  0.96546475  0.73875458  0.99096189    -0.69000
O160        O  0.97609397  0.80714344  0.99644141    -0.68500
O161        O  0.99693362  0.81179848  0.87022797    -0.59800
O162        O  0.92639649  0.82085121  0.92219559    -0.72300
O163        O  0.04865583  0.80236916  0.94355186    -0.71100
Cu164      Cu  0.97724642  0.73956036  0.92974036     1.04600
Cu165      Cu  0.98750298  0.81309687  0.93348170     1.04300
C166        C  0.06275996  0.76498760  0.94584612     0.95300
C167        C  0.90345957  0.78931051  0.91372797     0.94400
C168        C  0.99426303  0.77752454  0.84945638     0.86500
C169        C  0.96716411  0.77158278  0.01351752     0.92800
N170        N  0.95742751  0.76778386  0.05763360    -0.01500
C171        C  0.94191496  0.73245552  0.07684825     0.01100
C172        C  0.93207506  0.74017444  0.11781970    -0.21800
C173        C  0.94215898  0.78086007  0.12516816    -0.22000
C174        C  0.95791731  0.79741872  0.08848398     0.01000
H175        H  0.92099200  0.71763216  0.14071335     0.14800
H176        H  0.93903533  0.79658656  0.15479874     0.14800
N177        N  0.14156557  0.78192066  0.95111682    -0.01500
C178        C  0.17492851  0.75548936  0.95579379     0.01100
C179        C  0.16235987  0.71450772  0.96212931    -0.21800
C180        C  0.11983132  0.71466570  0.96084177    -0.22000
C181        C  0.10740693  0.75583227  0.95362277     0.01000
H182        H  0.18227197  0.68714710  0.96577523     0.14800
H183        H  0.09997274  0.68713502  0.96352340     0.14800
N184        N  0.99683767  0.77692431  0.80433997    -0.01500
C185        C  0.99435199  0.74160841  0.78036398     0.01100
C186        C  0.99802432  0.75106168  0.73874844    -0.21800
C187        C  0.00223554  0.79349214  0.73596792    -0.22000
C188        C  0.00094194  0.80912615  0.77607095     0.01000
H189        H  0.99629127  0.72929093  0.71302507     0.14800
H190        H  0.00487507  0.81128039  0.70726150     0.14800
N191        N  0.88148714  0.95694620  0.77503078    -0.01500
C192        C  0.86146242  0.96572821  0.73833773     0.01100
C193        C  0.82359004  0.98525661  0.74528997    -0.21800
C194        C  0.81877957  0.98784068  0.78708411    -0.22000
C195        C  0.85390401  0.96991817  0.80499545     0.01000
H196        H  0.80019619  0.99337229  0.72224533     0.14800
H197        H  0.79114675  0.99941043  0.80286352     0.14800
N198        N  0.83159945  0.82345275  0.90706549    -0.01500
C199        C  0.79508098  0.80788946  0.89153008     0.01100
C200        C  0.80245702  0.77188850  0.86872686    -0.21800
C201        C  0.84402141  0.76318137  0.87230221    -0.22000
C202        C  0.86115409  0.79442670  0.89661834     0.01000
H203        H  0.77916348  0.75083159  0.85595778     0.14800
H204        H  0.85950196  0.73509864  0.86110673     0.14800
C205        C  0.95295385  0.46794528  0.66120791     0.05100
C206        C  0.95393577  0.46885777  0.61735330    -0.11000
C207        C  0.95638002  0.43122538  0.59417975     0.02600
C208        C  0.95683913  0.39238916  0.61593053    -0.09500
C209        C  0.95462394  0.39115778  0.65967861     0.05100
C210        C  0.95321654  0.42896910  0.68170241    -0.09000
H211        H  0.95272166  0.49884240  0.60135235     0.10700
H212        H  0.95949331  0.36313883  0.59900135     0.08200
H213        H  0.95415201  0.42794926  0.71542441     0.08100
C214        C  0.96484858  0.46438426  0.20891573     0.05100
C215        C  0.97679597  0.42619176  0.19087930    -0.11000
C216        C  0.98790350  0.39123579  0.21527337     0.02600
C217        C  0.98637967  0.39457183  0.25889404    -0.09500
C218        C  0.97363425  0.43235050  0.27795491     0.05100
C219        C  0.96289742  0.46716764  0.25265253    -0.09000
H220        H  0.97804586  0.42385072  0.15734687     0.10700
H221        H  0.99505009  0.36787979  0.27803972     0.08200
H222        H  0.95351893  0.49652213  0.26702444     0.08100
C223        C  0.98867131  0.46250351  0.48338761     0.14700
C224        C  0.96458468  0.43498178  0.45902765     0.01600
C225        C  0.93792157  0.40614702  0.47927907     0.16600
C226        C  0.93514728  0.40498178  0.52287339     0.26000
C227        C  0.95919338  0.43255880  0.54750224    -0.40300
C228        C  0.98611284  0.46129768  0.52701759     0.33100
C229        C  0.96734358  0.43607023  0.41259246     0.01700
F230        F  0.91487940  0.37856026  0.45673636    -0.12600
F231        F  0.01085404  0.48767664  0.54919661    -0.13200
C232        C  0.00529423  0.42702801  0.39220884     0.16600
C233        C  0.00742555  0.42632572  0.34858028     0.26000
C234        C  0.97178544  0.43514271  0.32429403    -0.40300
C235        C  0.93408210  0.44521393  0.34467134     0.33000
C236        C  0.93182485  0.44538779  0.38831987     0.14700
F237        F  0.04013367  0.41780571  0.41461154    -0.12600
F238        F  0.89904010  0.45363608  0.32227928    -0.13100
F239        F  0.04449303  0.41727607  0.32996639    -0.15400
F240        F  0.89487259  0.45479843  0.40697276    -0.14000
F241        F  0.01444686  0.49098497  0.46484555    -0.14000
F242        F  0.90813730  0.37735517  0.54089863    -0.15400
C243        C  0.00980578  0.62719794  0.78028128     0.14700
C244        C  0.96972240  0.61491923  0.76673702     0.01600
C245        C  0.93591791  0.64266320  0.77272326     0.16600
C246        C  0.94321424  0.68391042  0.78613719     0.26000
C247        C  0.98433667  0.69804100  0.79298692    -0.40300
C248        C  0.01709768  0.66863564  0.79300787     0.33100
C249        C  0.96474142  0.57707733  0.74003839     0.01700
F250        F  0.89670151  0.63176979  0.76059449    -0.12600
F251        F  0.05707022  0.68162967  0.79938435    -0.13200
C252        C  0.93435653  0.54622384  0.74869924     0.16600
C253        C  0.92911631  0.51182439  0.72205179     0.26000
C254        C  0.95467398  0.50715343  0.68649581    -0.40300
C255        C  0.98466078  0.53839191  0.67767526     0.33000
C256        C  0.98931787  0.57308898  0.70386034     0.14700
F257        F  0.91022993  0.54896781  0.78335333    -0.12600
F258        F  0.01068798  0.53465317  0.64450708    -0.13100
F259        F  0.89897318  0.48300155  0.73106051    -0.15400
F260        F  0.01775526  0.60319594  0.69353029    -0.14000
F261        F  0.04269446  0.60032993  0.77705671    -0.14000
F262        F  0.91104887  0.71187095  0.78594800    -0.15400
C263        C  0.92980541  0.53104292  0.11636904     0.14700
C264        C  0.95186929  0.56873168  0.12298236     0.01600
C265        C  0.97580630  0.57276801  0.15953767     0.16600
C266        C  0.97879779  0.53947639  0.18810098     0.26000
C267        C  0.95737713  0.50148232  0.18123008    -0.40300
C268        C  0.93235627  0.49785849  0.14525488     0.33100
C269        C  0.94828976  0.60516008  0.09371345     0.01700
F270        F  0.99608559  0.60933292  0.16791400    -0.12600
F271        F  0.91040236  0.46202721  0.13796646    -0.13200
C272        C  0.90898519  0.62337655  0.08559065     0.16600
C273        C  0.90644053  0.66432184  0.06939891     0.26000
C274        C  0.94305280  0.68818526  0.06286210    -0.40300
C275        C  0.98188738  0.66747150  0.06406599     0.33000
C276        C  0.98448739  0.62610920  0.07937953     0.14700
F277        F  0.87328422  0.60406574  0.09847458    -0.12600
F278        F  0.01775514  0.68942521  0.05725750    -0.13100
F279        F  0.86844896  0.68345723  0.06771385    -0.15400
F280        F  0.02275839  0.60819880  0.08437590    -0.14000
F281        F  0.90638077  0.52602836  0.08155500    -0.14000
F282        F  0.00405340  0.54389110  0.22170797    -0.15400
C283        C  0.98983152  0.27648083  0.18221877     0.14700
C284        C  0.01559582  0.27825363  0.14666057     0.01600
C285        C  0.03517117  0.31646659  0.13623163     0.16600
C286        C  0.02798372  0.35254493  0.15996150     0.26000
C287        C  0.00029805  0.35145243  0.19418661    -0.40300
C288        C  0.98196864  0.31275147  0.20554670     0.33100
C289        C  0.02276942  0.23979400  0.12148340     0.01700
F290        F  0.06047068  0.31915440  0.10237889    -0.12600
F291        F  0.95508040  0.31027111  0.23819048    -0.13200
C292        C  0.98863494  0.21659482  0.10605514     0.16600
C293        C  0.99459523  0.17583063  0.09072456     0.26000
C294        C  0.03472140  0.15773853  0.09087809    -0.40300
C295        C  0.06935770  0.18312259  0.10073967     0.33000
C296        C  0.06345673  0.22371756  0.11635487     0.14700
F297        F  0.94913573  0.23209991  0.10899799    -0.12600
F298        F  0.10842870  0.16626435  0.10104328    -0.13100
F299        F  0.96058573  0.15197421  0.08153178    -0.15400
F300        F  0.09712199  0.24525168  0.13077918    -0.14000
F301        F  0.97225175  0.23946874  0.19442951    -0.14000
F302        F  0.04800023  0.38875781  0.14926218    -0.15400
C303        C  0.01782530  0.24671276  0.78990677     0.14700
C304        C  0.97820072  0.24933375  0.77096146     0.01600
C305        C  0.94946130  0.21631756  0.77751162     0.16600
C306        C  0.96232892  0.17903276  0.79735007     0.26000
C307        C  0.00435078  0.17385884  0.80941047    -0.40300
C308        C  0.03082082  0.20919689  0.80892678     0.33100
C309        C  0.96946465  0.28352509  0.74021602     0.01700
F310        F  0.91067772  0.21798357  0.76036514    -0.12600
F311        F  0.07141476  0.20519826  0.82079378    -0.13200
C312        C  0.99726624  0.29037096  0.70673083     0.16600
C313        C  0.99118553  0.32395135  0.67899230     0.26000
C314        C  0.95686818  0.35111108  0.68377336    -0.40300
C315        C  0.92766412  0.34278025  0.71570623     0.33000
C316        C  0.93394356  0.30937978  0.74371837     0.14700
F317        F  0.03081534  0.26474393  0.70118116    -0.12600
F318        F  0.89356602  0.36784250  0.72042798    -0.13100
F319        F  0.02019396  0.33132980  0.64893247    -0.15400
F320        F  0.90625163  0.30345635  0.77525734    -0.14000
F321        F  0.04543586  0.27906915  0.78634904    -0.14000
F322        F  0.93591692  0.14551636  0.79802863    -0.15400
C323        C  0.16229009  0.97873120  0.65540304     0.14700
C324        C  0.17274045  0.94383174  0.63062902     0.01600
C325        C  0.16671212  0.90299701  0.64694592     0.16600
C326        C  0.15507818  0.89737397  0.68843349     0.26000
C327        C  0.15043797  0.93227334  0.71450679    -0.40300
C328        C  0.15160372  0.97295046  0.69728101     0.33100
C329        C  0.19502459  0.94949752  0.59034852     0.01700
F330        F  0.17689977  0.86847660  0.62438557    -0.12600
F331        F  0.14763816  0.00708648  0.72220328    -0.13200
C332        C  0.23182829  0.97397394  0.58809982     0.16600
C333        C  0.25538926  0.97582288  0.55137200     0.26000
C334        C  0.24351156  0.95206728  0.51653469    -0.40300
C335        C  0.20678528  0.92735424  0.51907852     0.33000
C336        C  0.18233924  0.92703512  0.55509168     0.14700
F337        F  0.24590416  0.99502192  0.62194348    -0.12600
F338        F  0.19497961  0.90232200  0.48707893    -0.13100
F339        F  0.28958940  0.00118701  0.54987145    -0.15400
F340        F  0.14638390  0.90419186  0.55566340    -0.14000
F341        F  0.16573918  0.01848319  0.64000962    -0.14000
F342        F  0.15440907  0.85782491  0.70473405    -0.15400
C343        C  0.13558857  0.89058721  0.25690744     0.14700
C344        C  0.15554493  0.92972174  0.26204923     0.01600
C345        C  0.15346353  0.95960002  0.22969643     0.16600
C346        C  0.13708227  0.94834733  0.19097434     0.26000
C347        C  0.12367425  0.90681599  0.18394124    -0.40300
C348        C  0.11976962  0.87919132  0.21797616     0.33100
C349        C  0.18420764  0.93674492  0.29769023     0.01700
F350        F  0.17218550  0.99774072  0.23380494    -0.12600
F351        F  0.10604683  0.83921127  0.21204381    -0.13200
C352        C  0.21867205  0.90974642  0.30382404     0.16600
C353        C  0.24714181  0.91692448  0.33609183     0.26000
C354        C  0.24190870  0.95143254  0.36277946    -0.40300
C355        C  0.20792787  0.97901825  0.35593628     0.33000
C356        C  0.17930214  0.97162716  0.32383476     0.14700
F357        F  0.22491208  0.87640818  0.27830408    -0.12600
F358        F  0.20209422  0.01289337  0.38084084    -0.13100
F359        F  0.27871592  0.88899548  0.34238172    -0.15400
F360        F  0.14624632  0.99803129  0.31882375    -0.14000
F361        F  0.13509675  0.86196492  0.28842491    -0.14000
F362        F  0.14120451  0.97562491  0.15855427    -0.15400
C363        C  0.80335684  0.89261937  0.55566245     0.14700
C364        C  0.80033916  0.92618793  0.58377284     0.01600
C365        C  0.76840957  0.95629976  0.57793213     0.16600
C366        C  0.74093480  0.95364984  0.54405332     0.26000
C367        C  0.74467907  0.92078090  0.51521723    -0.40300
C368        C  0.77591193  0.88997709  0.52170592     0.33100
C369        C  0.82970316  0.92999502  0.61965708     0.01700
F370        F  0.76382625  0.98846831  0.60517450    -0.12600
F371        F  0.78008222  0.85740512  0.49485219    -0.13200
C372        C  0.85322866  0.96701827  0.62507843     0.16600
C373        C  0.87262361  0.97537200  0.66323945     0.26000
C374        C  0.86848311  0.94711195  0.69681923    -0.40300
C375        C  0.85021708  0.90747352  0.68937197     0.33000
C376        C  0.83062978  0.89909920  0.65118836     0.14700
F377        F  0.85431634  0.99677715  0.59461980    -0.12600
F378        F  0.84512206  0.87973571  0.72126684    -0.13100
F379        F  0.88983618  0.01391360  0.66947751    -0.15400
F380        F  0.80846729  0.86289168  0.64689984    -0.14000
F381        F  0.83365431  0.86301822  0.56041806    -0.14000
F382        F  0.71184828  0.98432142  0.53843662    -0.15400
C383        C  0.80033957  0.89112965  0.31971264     0.14700
C384        C  0.79329468  0.92168781  0.28873044     0.01600
C385        C  0.75955425  0.94986884  0.29354333     0.16600
C386        C  0.73444344  0.94856338  0.32922766     0.26000
C387        C  0.74188915  0.91843801  0.36058576    -0.40300
C388        C  0.77465084  0.88920840  0.35499405     0.33100
C389        C  0.81927761  0.92313562  0.25026116     0.01700
F390        F  0.75051500  0.97851662  0.26335494    -0.12600
F391        F  0.78178762  0.85858826  0.38375803    -0.13200
C392        C  0.82270904  0.88737800  0.22481456     0.16600
C393        C  0.83780745  0.89129038  0.18413093     0.26000
C394        C  0.84818863  0.93110492  0.16789431    -0.40300
C395        C  0.85017416  0.96559937  0.19485524     0.33000
C396        C  0.83614244  0.96158648  0.23594386     0.14700
F397        F  0.80671746  0.84976692  0.23733221    -0.12600
F398        F  0.86016155  0.00435520  0.17979215    -0.13100
F399        F  0.83571571  0.85752962  0.15848675    -0.15400
F400        F  0.83547040  0.99617285  0.26054918    -0.14000
F401        F  0.83259189  0.86353640  0.31620572    -0.14000
F402        F  0.70373334  0.97774951  0.33365445    -0.15400
C403        C  0.54177863  0.96721082  0.46200100     0.14700
C404        C  0.51665228  0.93959334  0.43879068     0.01600
C405        C  0.53622252  0.90767118  0.41575352     0.16600
C406        C  0.57999521  0.90331647  0.41590856     0.26000
C407        C  0.60535467  0.93064402  0.43945164    -0.40300
C408        C  0.58561561  0.96269655  0.46249748     0.33100
C409        C  0.47001712  0.94325175  0.43919376     0.01700
F410        F  0.51279749  0.88076586  0.39280115    -0.12600
F411        F  0.60884507  0.99031688  0.48480721    -0.13200
C412        C  0.44967973  0.97679659  0.41878742     0.16600
C413        C  0.40568144  0.97919696  0.41813608     0.26000
C414        C  0.38112991  0.94844453  0.43846278    -0.40300
C415        C  0.40162803  0.91517194  0.45923971     0.33000
C416        C  0.44552653  0.91247372  0.45933694     0.14700
F417        F  0.47247161  0.00693860  0.39899200    -0.12600
F418        F  0.37905074  0.88469035  0.47877042    -0.13100
F419        F  0.38703738  0.01204371  0.39830309    -0.15400
F420        F  0.46426171  0.87982469  0.47939184    -0.14000
F421        F  0.52376898  0.99828665  0.48463602    -0.14000
F422        F  0.59752667  0.87168701  0.39365584    -0.15400
C423        C  0.65084217  0.17189714  0.99314250     0.14700
C424        C  0.65376395  0.13971355  0.96335675     0.01600
C425        C  0.61937409  0.13147331  0.93755006     0.16600
C426        C  0.58236142  0.15449713  0.94196880     0.26000
C427        C  0.57905380  0.18595643  0.97250252    -0.40300
C428        C  0.61374580  0.19465376  0.99783433     0.33100
C429        C  0.69363343  0.11663691  0.95818238     0.01700
F430        F  0.62155506  0.10092075  0.90828510    -0.12600
F431        F  0.61145635  0.22456721  0.02774260    -0.13200
C432        C  0.71256943  0.09694939  0.99262847     0.16600
C433        C  0.75467147  0.08517460  0.99090446     0.26000
C434        C  0.77799969  0.09265337  0.95465982    -0.40300
C435        C  0.75766517  0.10706216  0.91865789     0.33000
C436        C  0.71571453  0.11933416  0.92042745     0.14700
F437        F  0.69138552  0.09277213  0.02904247    -0.12600
F438        F  0.78005202  0.11496363  0.88354662    -0.13100
F439        F  0.77404497  0.07172766  0.02611108    -0.15400
F440        F  0.69835481  0.13845395  0.88675219    -0.14000
F441        F  0.68426429  0.18180903  0.01725815    -0.14000
F442        F  0.54989503  0.14648820  0.91596956    -0.15400
C443        C  0.32209348  0.06225163  0.94254463     0.14700
C444        C  0.32515763  0.08884636  0.97727584     0.01600
C445        C  0.29153037  0.09017977  0.00552526     0.16600
C446        C  0.25365264  0.07001166  0.99617359     0.26000
C447        C  0.24849295  0.04951710  0.95784215    -0.40300
C448        C  0.28399363  0.04268716  0.93294316     0.33100
C449        C  0.36022869  0.11964327  0.98061815     0.01700
F450        F  0.29340538  0.11537801  0.03942194    -0.12600
F451        F  0.27995844  0.02269175  0.89597472    -0.13200
C452        C  0.36800119  0.14829190  0.94782600     0.16600
C453        C  0.40010665  0.17817258  0.95082598     0.26000
C454        C  0.42498331  0.18019418  0.98666809    -0.40300
C455        C  0.41704848  0.15200895  0.01966253     0.33000
C456        C  0.38479554  0.12215389  0.01678855     0.14700
F457        F  0.34435169  0.14743375  0.91278946    -0.12600
F458        F  0.44126924  0.15284815  0.05430042    -0.13100
F459        F  0.40819229  0.20392325  0.91793255    -0.15400
F460        F  0.37837366  0.09487764  0.04881034    -0.14000
F461        F  0.35476375  0.05853777  0.91577282    -0.14000
F462        F  0.21985407  0.07727485  0.02075868    -0.15400
C463        C  0.71202417  0.77944243  0.96627522     0.14700
C464        C  0.67832747  0.77493552  0.93861769     0.01600
C465        C  0.68066524  0.79405896  0.89916208     0.16600
C466        C  0.71806508  0.81255029  0.88565076     0.26000
C467        C  0.75359463  0.81202184  0.91137848    -0.40300
C468        C  0.74939903  0.79818894  0.95282476     0.33100
C469        C  0.64382471  0.74519400  0.94831289     0.01700
F470        F  0.64796917  0.79132574  0.87237020    -0.12600
F471        F  0.78335036  0.79662386  0.97816125    -0.13200
C472        C  0.61695936  0.75185226  0.98220189     0.16600
C473        C  0.58420688  0.72362353  0.99044868     0.26000
C474        C  0.57806968  0.68807144  0.96513255    -0.40300
C475        C  0.60580451  0.68081843  0.93202301     0.33000
C476        C  0.63837245  0.70909064  0.92371499     0.14700
F477        F  0.62170299  0.78633162  0.00649554    -0.12600
F478        F  0.60007966  0.64749421  0.90638681    -0.13100
F479        F  0.55798181  0.73133868  0.02276486    -0.15400
F480        F  0.66458838  0.70133380  0.89138537    -0.14000
F481        F  0.71054994  0.76124607  0.00454592    -0.14000
F482        F  0.72137707  0.82568191  0.84553288    -0.15400
C483        C  0.35163758  0.69278220  0.98563691     0.14700
C484        C  0.34665776  0.72503106  0.95588474     0.01600
C485        C  0.37985758  0.73450324  0.92880012     0.16600
C486        C  0.41759379  0.71230981  0.93164002     0.26000
C487        C  0.42290044  0.68041939  0.96190894    -0.40300
C488        C  0.38941917  0.67080957  0.98876015     0.33100
C489        C  0.30548760  0.74594433  0.95134720     0.01700
F490        F  0.37567221  0.76522073  0.89956488    -0.12600
F491        F  0.39345755  0.64063983  0.01856396    -0.13200
C492        C  0.28676888  0.76608175  0.98549479     0.16600
C493        C  0.24393560  0.77542473  0.98499086     0.26000
C494        C  0.21966750  0.76515922  0.95016828    -0.40300
C495        C  0.23944238  0.74976736  0.91431687     0.33000
C496        C  0.28207480  0.74003573  0.91491186     0.14700
F497        F  0.30923301  0.77337432  0.02052617    -0.12600
F498        F  0.21629593  0.73902723  0.88060786    -0.13100
F499        F  0.22532277  0.79007752  0.02000177    -0.15400
F500        F  0.29923715  0.72036463  0.88162416    -0.14000
F501        F  0.31941242  0.68183809  0.01108002    -0.14000
F502        F  0.44865303  0.72139514  0.90414975    -0.15400
C503        C  0.48709204  0.47889556  0.94467437     0.14700
C504        C  0.50463732  0.45750741  0.97891647     0.01600
C505        C  0.52330012  0.48129185  0.01078055     0.16600
C506        C  0.52409854  0.52550632  0.00846539     0.26000
C507        C  0.50609609  0.54672821  0.97436888    -0.40300
C508        C  0.48786124  0.52293261  0.94241935     0.33100
C509        C  0.50364755  0.41051479  0.98075503     0.01700
F510        F  0.54119147  0.46170367  0.04390966    -0.12600
F511        F  0.47101733  0.54244417  0.90870405    -0.13200
C512        C  0.52050658  0.38679169  0.94794411     0.16600
C513        C  0.51824872  0.34276062  0.94846293     0.26000
C514        C  0.49932350  0.32124247  0.98193625    -0.40300
C515        C  0.48261828  0.34482641  0.01493749     0.33000
C516        C  0.48480200  0.38905227  0.01438709     0.14700
F517        F  0.53979243  0.40631867  0.91550235    -0.12600
F518        F  0.46514932  0.32499762  0.04819642    -0.13100
F519        F  0.53433107  0.32102909  0.91591677    -0.15400
F520        F  0.46795412  0.41093578  0.04643833    -0.14000
F521        F  0.46840953  0.45708155  0.91361873    -0.14000
F522        F  0.54152017  0.54764817  0.04001329    -0.15400
loop_ 
_geom_bond_atom_site_label_1 
_geom_bond_atom_site_label_2 
_geom_bond_distance 
_geom_bond_site_symmetry_2 
_ccdc_geom_bond_type 
C1            C2   1.409       .  A
C1            C6   1.400       .  A
C1          C474   1.483       .  S
C2            C3   1.409       .  A
C2            H7   1.084       .  S
C3            C4   1.407       .  A
C3          C507   1.488       .  S
C4            C5   1.406       .  A
C4            H8   1.085       .  S
C5            C6   1.400       .  A
C5          C487   1.486       .  S
C6            H9   1.082       .  S
C10          C11   1.398       .  A
C10          C15   1.411       .  A
C10         C454   1.481       .  S
C11          C12   1.398       .  A
C11          H16   1.084       .  S
C12          C13   1.403       .  A
C12         C427   1.480       .  S
C13          C14   1.406       .  A
C13          H17   1.084       .  S
C14          C15   1.413       .  A
C14         C514   1.490       .  S
C15          H18   1.085       .  S
C19          C20   1.401       .  A
C19          C24   1.412       .  A
C19         C367   1.493       .  S
C20          C21   1.401       .  A
C20          H25   1.084       .  S
C21          C22   1.409       .  A
C21         C387   1.491       .  S
C22          C23   1.411       .  A
C22          H26   1.084       .  S
C23          C24   1.415       .  A
C23         C407   1.501       .  S
C24          H27   1.082       .  S
C28          C29   1.410       .  A
C28          C33   1.399       .  A
C28         C334   1.492       .  S
C29          C30   1.411       .  A
C29          H34   1.083       .  S
C30          C31   1.413       .  A
C30         C414   1.496       .  S
C31          C32   1.411       .  A
C31          H35   1.083       .  S
C32          C33   1.398       .  A
C32         C354   1.489       .  S
C33          H36   1.083       .  S
O37         Cu45   2.010       .  S
O37          C47   1.276       .  A
O38         Cu45   2.005   1_545  S
O38          C48   1.276       .  A
O39         Cu45   1.973       .  S
O39          C49   1.277       .  A
O40         Cu45   1.963       .  S
O40          C50   1.276   1_556  A
O41         Cu46   2.021       .  S
O41          C50   1.274   1_556  A
O42         Cu46   2.027       .  S
O42          C49   1.275       .  A
O43         Cu46   2.047   1_545  S
O43          C48   1.281       .  A
O44         Cu46   2.053       .  S
O44          C47   1.283       .  A
Cu45        Cu46   2.361       .  S
C47         N198   1.453       .  S
C48          N58   1.455       .  S
C49         C195   1.478       .  S
C50          C55   1.475       .  S
N51         C120   1.454       .  S
N51          C55   1.370       .  A
N51          C52   1.367       .  A
C52          C53   1.375       .  A
C52         C394   1.472       .  S
C53          C54   1.355       .  A
C53          H56   1.083       .  S
C54          C55   1.386       .  A
C54          H57   1.083       .  S
N58          C62   1.369       .  A
N58          C59   1.363       .  A
C59          C60   1.375       .  A
C59         C434   1.466       .  S
C60          C61   1.357       .  A
C60          H63   1.083       .  S
C61          C62   1.385       .  A
C61          H64   1.083       .  S
C62         C132   1.470       .  S
O65         Cu73   2.022       .  S
O65          C75   1.274       .  A
O66         Cu73   2.022       .  S
O66          C76   1.274   1_565  A
O67         Cu73   2.059   1_655  S
O67          C77   1.284       .  A
O68         Cu73   2.055       .  S
O68          C78   1.282       .  A
O69         Cu74   2.003       .  S
O69          C78   1.276       .  A
O70         Cu74   2.017   1_655  S
O70          C77   1.276       .  A
O71         Cu74   1.973   1_545  S
O71          C76   1.277       .  A
O72         Cu74   1.969       .  S
O72          C75   1.276       .  A
Cu73        Cu74   2.361       .  S
C75         C188   1.477       .  S
C76          C83   1.476       .  S
C77         N191   1.456       .  S
C78          N86   1.455       .  S
N79         C133   1.453       .  S
N79          C83   1.368       .  A
N79          C80   1.366       .  A
C80          C81   1.378       .  A
C80         C307   1.477       .  S
C81          C82   1.357       .  A
C81          H84   1.083       .  S
C82          C83   1.383       .  A
C82          H85   1.083       .  S
N86          C90   1.371       .  A
N86          C87   1.365       .  A
C87          C88   1.374       .  A
C87         C327   1.469       .  S
C88          C89   1.355       .  A
C88          H91   1.083       .  S
C89          C90   1.386       .  A
C89          H92   1.083       .  S
C90         C105   1.475       .  S
O93        Cu101   2.049       .  S
O93         C103   1.281       .  A
O94        Cu101   2.055       .  S
O94         C104   1.284       .  A
O95        Cu101   2.022       .  S
O95         C105   1.274       .  A
O96        Cu101   2.018   1_554  S
O96         C106   1.274       .  A
O97        Cu102   1.970   1_554  S
O97         C106   1.276       .  A
O98        Cu102   1.967       .  S
O98         C105   1.277       .  A
O99        Cu102   2.017       .  S
O99         C104   1.277       .  A
O100       Cu102   2.006       .  S
O100        C103   1.277       .  A
Cu101      Cu102   2.360       .  S
C103        N177   1.455       .  S
C104        N149   1.455   1_565  S
C106        C146   1.474       .  S
O107       Cu115   2.015       .  S
O107        C117   1.273       .  A
O108       Cu115   2.016   1_455  S
O108        C118   1.273   1_565  A
O109       Cu115   2.054   1_455  S
O109        C119   1.283       .  A
O110       Cu115   2.058       .  S
O110        C120   1.284       .  A
O111       Cu116   1.994       .  S
O111        C120   1.274       .  A
O112       Cu116   1.993   1_455  S
O112        C119   1.274       .  A
O113       Cu116   1.973       .  S
O113        C118   1.277   1_665  A
O114       Cu116   1.976       .  S
O114        C117   1.278       .  A
Cu115      Cu116   2.362       .  S
C117        C174   1.475       .  S
C118        C139   1.475       .  S
C119        N142   1.451       .  S
O121       Cu129   2.011       .  S
O121        C131   1.273       .  A
O122       Cu129   2.003   1_655  S
O122        C132   1.271       .  A
O123       Cu129   2.057       .  S
O123        C133   1.283       .  A
O124       Cu129   2.056   1_554  S
O124        C134   1.283       .  A
O125       Cu130   2.008   1_554  S
O125        C134   1.276       .  A
O126       Cu130   2.006       .  S
O126        C133   1.276       .  A
O127       Cu130   1.972   1_655  S
O127        C132   1.277       .  A
O128       Cu130   1.983       .  S
O128        C131   1.278       .  A
Cu129      Cu130   2.363       .  S
C131        C153   1.471       .  S
C134        N135   1.455       .  S
N135        C139   1.370       .  A
N135        C136   1.367       .  A
C136        C137   1.378       .  A
C136        C294   1.476       .  S
C137        C138   1.356       .  A
C137        H140   1.083       .  S
C138        C139   1.384       .  A
C138        H141   1.083       .  S
N142        C146   1.365       .  A
N142        C143   1.365       .  A
C143        C144   1.378       .  A
C143        C347   1.475       .  S
C144        C145   1.360       .  A
C144        H147   1.088       .  S
C145        C146   1.384       .  A
C145        H148   1.085       .  S
N149        C153   1.368       .  A
N149        C150   1.367       .  A
C150        C151   1.380       .  A
C150        C447   1.477       .  S
C151        C152   1.357       .  A
C151        H154   1.083       .  S
C152        C153   1.381       .  A
C152        H155   1.083       .  S
O156       Cu164   1.988   1_455  S
O156        C166   1.279       .  A
O157       Cu164   1.983       .  S
O157        C167   1.278       .  A
O158       Cu164   1.995       .  S
O158        C168   1.274       .  A
O159       Cu164   2.005       .  S
O159        C169   1.275   1_556  A
O160       Cu165   2.065       .  S
O160        C169   1.285   1_556  A
O161       Cu165   2.057       .  S
O161        C168   1.283       .  A
O162       Cu165   2.001       .  S
O162        C167   1.272       .  A
O163       Cu165   2.009   1_455  S
O163        C166   1.272       .  A
Cu164      Cu165   2.362       .  S
C166        C181   1.477       .  S
C167        C202   1.468       .  S
C168        N184   1.454       .  S
C169        N170   1.457       .  S
N170        C174   1.372       .  A
N170        C171   1.370       .  A
C171        C172   1.378       .  A
C171        C274   1.479       .  S
C172        C173   1.354       .  A
C172        H175   1.083       .  S
C173        C174   1.383       .  A
C173        H176   1.083       .  S
N177        C181   1.372       .  A
N177        C178   1.365       .  A
C178        C179   1.376       .  A
C178        C494   1.472       .  S
C179        C180   1.359       .  A
C179        H182   1.083       .  S
C180        C181   1.385       .  A
C180        H183   1.083       .  S
N184        C188   1.371   1_655  A
N184        C185   1.367       .  A
C185        C186   1.375       .  A
C185        C247   1.474       .  S
C186        C187   1.356   1_655  A
C186        H189   1.083       .  S
C187        C188   1.386       .  A
C187        H190   1.083       .  S
N191        C195   1.370       .  A
N191        C192   1.371       .  A
C192        C193   1.378       .  A
C192        C374   1.481       .  S
C193        C194   1.356       .  A
C193        H196   1.083       .  S
C194        C195   1.383       .  A
C194        H197   1.083       .  S
N198        C202   1.363       .  A
N198        C199   1.363       .  A
C199        C200   1.382       .  A
C199        C467   1.476       .  S
C200        C201   1.361       .  A
C200        H203   1.083       .  S
C201        C202   1.380       .  A
C201        H204   1.083       .  S
C205        C206   1.411       .  A
C205        C210   1.399       .  A
C205        C254   1.492       .  S
C206        C207   1.414       .  A
C206        H211   1.080       .  S
C207        C208   1.414       .  A
C207        C227   1.505       .  S
C208        C209   1.409       .  A
C208        H212   1.083       .  S
C209        C210   1.398       .  A
C209        C314   1.487       .  S
C210        H213   1.086       .  S
C214        C215   1.401       .  A
C214        C219   1.412       .  A
C214        C267   1.492       .  S
C215        C216   1.402       .  A
C215        H220   1.082       .  S
C216        C217   1.409       .  A
C216        C287   1.491   1_655  S
C217        C218   1.410       .  A
C217        H221   1.081       .  S
C218        C219   1.412       .  A
C218        C234   1.495       .  S
C219        H222   1.085       .  S
C223        C224   1.407       .  A
C223        C228   1.406       .  A
C223        F241   1.358   1_655  S
C224        C225   1.407       .  A
C224        C229   1.497       .  S
C225        C226   1.405       .  A
C225        F230   1.358       .  S
C226        C227   1.412       .  A
C226        F242   1.357       .  S
C227        C228   1.413       .  A
C228        F231   1.358   1_655  S
C229        C232   1.408   1_655  A
C229        C236   1.408       .  A
C232        C233   1.405       .  A
C232        F237   1.358       .  S
C233        C234   1.409   1_455  A
C233        F239   1.358       .  S
C234        C235   1.408       .  A
C235        C236   1.406       .  A
C235        F238   1.358       .  S
C236        F240   1.358       .  S
C243        C244   1.408   1_455  A
C243        C248   1.400       .  A
C243        F261   1.358       .  S
C244        C245   1.408       .  A
C244        C249   1.490       .  S
C245        C246   1.401       .  A
C245        F250   1.358       .  S
C246        C247   1.406       .  A
C246        F262   1.358       .  S
C247        C248   1.403   1_655  A
C248        F251   1.358       .  S
C249        C252   1.405       .  A
C249        C256   1.409       .  A
C252        C253   1.403       .  A
C252        F257   1.358       .  S
C253        C254   1.413       .  A
C253        F259   1.358       .  S
C254        C255   1.406       .  A
C255        C256   1.399       .  A
C255        F258   1.358   1_655  S
C256        F260   1.358   1_655  S
C263        C264   1.406       .  A
C263        C268   1.403       .  A
C263        F281   1.358       .  S
C264        C265   1.410       .  A
C264        C269   1.492       .  S
C265        C266   1.400       .  A
C265        F270   1.358       .  S
C266        C267   1.406       .  A
C266        F282   1.358   1_655  S
C267        C268   1.412       .  A
C268        F271   1.358       .  S
C269        C272   1.407       .  A
C269        C276   1.409       .  A
C272        C273   1.400       .  A
C272        F277   1.358       .  S
C273        C274   1.408       .  A
C273        F279   1.358       .  S
C274        C275   1.405       .  A
C275        C276   1.403       .  A
C275        F278   1.358   1_655  S
C276        F280   1.358   1_655  S
C283        C284   1.409   1_655  A
C283        C288   1.401       .  A
C283        F301   1.358       .  S
C284        C285   1.404       .  A
C284        C289   1.487       .  S
C285        C286   1.399       .  A
C285        F290   1.358       .  S
C286        C287   1.412       .  A
C286        F302   1.358       .  S
C287        C288   1.407   1_455  A
C288        F291   1.358       .  S
C289        C292   1.408   1_455  A
C289        C296   1.406       .  A
C292        C293   1.401       .  A
C292        F297   1.358       .  S
C293        C294   1.405   1_655  A
C293        F299   1.358       .  S
C294        C295   1.406       .  A
C295        C296   1.399       .  A
C295        F298   1.358       .  S
C296        F300   1.358       .  S
C303        C304   1.408   1_455  A
C303        C308   1.399       .  A
C303        F321   1.358       .  S
C304        C305   1.408       .  A
C304        C309   1.491       .  S
C305        C306   1.404       .  A
C305        F310   1.357       .  S
C306        C307   1.407   1_655  A
C306        F322   1.358       .  S
C307        C308   1.405       .  A
C308        F311   1.358       .  S
C309        C312   1.411       .  A
C309        C316   1.405       .  A
C312        C313   1.400       .  A
C312        F317   1.358   1_655  S
C313        C314   1.404       .  A
C313        F319   1.358   1_655  S
C314        C315   1.411       .  A
C315        C316   1.402       .  A
C315        F318   1.358       .  S
C316        F320   1.357       .  S
C323        C324   1.409       .  A
C323        C328   1.400       .  A
C323        F341   1.358   1_565  S
C324        C325   1.409       .  A
C324        C329   1.488       .  S
C325        C326   1.395       .  A
C325        F330   1.358       .  S
C326        C327   1.402       .  A
C326        F342   1.358       .  S
C327        C328   1.403       .  A
C328        F331   1.358   1_565  S
C329        C332   1.411       .  A
C329        C336   1.404       .  A
C332        C333   1.401       .  A
C332        F337   1.358       .  S
C333        C334   1.407       .  A
C333        F339   1.358   1_565  S
C334        C335   1.413       .  A
C335        C336   1.396       .  A
C335        F338   1.358       .  S
C336        F340   1.358       .  S
C343        C344   1.407       .  A
C343        C348   1.401       .  A
C343        F361   1.358       .  S
C344        C345   1.406       .  A
C344        C349   1.486       .  S
C345        C346   1.400       .  A
C345        F350   1.358       .  S
C346        C347   1.406       .  A
C346        F362   1.358       .  S
C347        C348   1.404       .  A
C348        F351   1.358       .  S
C349        C352   1.409       .  A
C349        C356   1.404       .  A
C352        C353   1.400       .  A
C352        F357   1.358       .  S
C353        C354   1.406       .  A
C353        F359   1.358       .  S
C354        C355   1.412       .  A
C355        C356   1.401       .  A
C355        F358   1.358   1_565  S
C356        F360   1.358       .  S
C363        C364   1.405       .  A
C363        C368   1.404       .  A
C363        F381   1.357       .  S
C364        C365   1.410       .  A
C364        C369   1.494       .  S
C365        C366   1.403       .  A
C365        F370   1.358       .  S
C366        C367   1.406       .  A
C366        F382   1.358       .  S
C367        C368   1.412       .  A
C368        F371   1.358       .  S
C369        C372   1.407       .  A
C369        C376   1.407       .  A
C372        C373   1.402       .  A
C372        F377   1.358       .  S
C373        C374   1.406       .  A
C373        F379   1.358   1_565  S
C374        C375   1.409       .  A
C375        C376   1.406       .  A
C375        F378   1.358       .  S
C376        F380   1.358       .  S
C383        C384   1.405       .  A
C383        C388   1.401       .  A
C383        F401   1.358       .  S
C384        C385   1.410       .  A
C384        C389   1.490       .  S
C385        C386   1.400       .  A
C385        F390   1.358       .  S
C386        C387   1.407       .  A
C386        F402   1.358       .  S
C387        C388   1.411       .  A
C388        F391   1.358       .  S
C389        C392   1.408       .  A
C389        C396   1.409       .  A
C392        C393   1.399       .  A
C392        F397   1.358       .  S
C393        C394   1.405       .  A
C393        F399   1.358       .  S
C394        C395   1.403       .  A
C395        C396   1.400       .  A
C395        F398   1.358   1_565  S
C396        F400   1.358       .  S
C403        C404   1.407       .  A
C403        C408   1.408       .  A
C403        F421   1.358       .  S
C404        C405   1.406       .  A
C404        C409   1.494       .  S
C405        C406   1.405       .  A
C405        F410   1.358       .  S
C406        C407   1.411       .  A
C406        F422   1.358       .  S
C407        C408   1.411       .  A
C408        F411   1.358       .  S
C409        C412   1.407       .  A
C409        C416   1.406       .  A
C412        C413   1.408       .  A
C412        F417   1.358   1_565  S
C413        C414   1.410       .  A
C413        F419   1.358   1_565  S
C414        C415   1.409       .  A
C415        C416   1.405       .  A
C415        F418   1.358       .  S
C416        F420   1.357       .  S
C423        C424   1.408       .  A
C423        C428   1.397       .  A
C423        F441   1.358   1_556  S
C424        C425   1.403       .  A
C424        C429   1.479       .  S
C425        C426   1.398       .  A
C425        F430   1.358       .  S
C426        C427   1.409       .  A
C426        F442   1.358       .  S
C427        C428   1.405       .  A
C428        F431   1.358   1_556  S
C429        C432   1.407       .  A
C429        C436   1.406       .  A
C432        C433   1.397       .  A
C432        F437   1.358   1_556  S
C433        C434   1.402       .  A
C433        F439   1.358   1_556  S
C434        C435   1.403       .  A
C435        C436   1.397       .  A
C435        F438   1.358       .  S
C436        F440   1.358       .  S
C443        C444   1.408       .  A
C443        C448   1.402       .  A
C443        F461   1.358       .  S
C444        C445   1.407   1_556  A
C444        C449   1.491       .  S
C445        C446   1.402   1_554  A
C445        F450   1.358       .  S
C446        C447   1.408       .  A
C446        F462   1.358   1_556  S
C447        C448   1.405       .  A
C448        F451   1.358       .  S
C449        C452   1.411       .  A
C449        C456   1.407   1_556  A
C452        C453   1.401       .  A
C452        F457   1.358       .  S
C453        C454   1.403       .  A
C453        F459   1.358       .  S
C454        C455   1.407   1_556  A
C455        C456   1.403       .  A
C455        F458   1.358       .  S
C456        F460   1.357       .  S
C463        C464   1.405       .  A
C463        C468   1.401       .  A
C463        F481   1.358   1_556  S
C464        C465   1.406       .  A
C464        C469   1.483       .  S
C465        C466   1.399       .  A
C465        F470   1.358       .  S
C466        C467   1.405       .  A
C466        F482   1.358       .  S
C467        C468   1.408       .  A
C468        F471   1.358       .  S
C469        C472   1.404       .  A
C469        C476   1.408       .  A
C472        C473   1.401       .  A
C472        F477   1.358   1_556  S
C473        C474   1.410       .  A
C473        F479   1.358   1_556  S
C474        C475   1.405       .  A
C475        C476   1.398       .  A
C475        F478   1.358       .  S
C476        F480   1.358       .  S
C483        C484   1.407       .  A
C483        C488   1.398       .  A
C483        F501   1.358   1_556  S
C484        C485   1.403       .  A
C484        C489   1.480       .  S
C485        C486   1.399       .  A
C485        F490   1.358       .  S
C486        C487   1.411       .  A
C486        F502   1.358       .  S
C487        C488   1.406       .  A
C488        F491   1.358   1_556  S
C489        C492   1.407       .  A
C489        C496   1.405       .  A
C492        C493   1.400       .  A
C492        F497   1.358   1_556  S
C493        C494   1.403       .  A
C493        F499   1.358   1_556  S
C494        C495   1.405       .  A
C495        C496   1.397       .  A
C495        F498   1.358       .  S
C496        F500   1.358       .  S
C503        C504   1.408       .  A
C503        C508   1.400       .  A
C503        F521   1.358       .  S
C504        C505   1.410   1_556  A
C504        C509   1.493       .  S
C505        C506   1.406       .  A
C505        F510   1.358       .  S
C506        C507   1.408   1_554  A
C506        F522   1.358       .  S
C507        C508   1.406       .  A
C508        F511   1.358       .  S
C509        C512   1.407       .  A
C509        C516   1.410   1_556  A
C512        C513   1.400       .  A
C512        F517   1.358       .  S
C513        C514   1.408       .  A
C513        F519   1.358       .  S
C514        C515   1.408   1_556  A
C515        C516   1.406       .  A
C515        F518   1.358       .  S
C516        F520   1.358       .  S
