geometry optimzed in LAMMPS
_audit_creation_date              2020-11-30 
_audit_creation_method            'lammps2cif' 
_symmetry_space_group_name_H-M    'P1' 
_symmetry_Int_Tables_number       1 
_symmetry_cell_setting            triclinic 
loop_ 
_symmetry_equiv_pos_as_xyz 
  x,y,z 
_cell_length_a                    60.54534226 
_cell_length_b                    60.4464056960495 
_cell_length_c                    60.42818531442638 
_cell_angle_alpha                 89.709096447067 
_cell_angle_beta                  90.12958237507853 
_cell_angle_gamma                 89.93375976546723 
loop_ 
_atom_site_label 
_atom_site_type_symbol 
_atom_site_fract_x 
_atom_site_fract_y 
_atom_site_fract_z 
_atom_site_charge 
O1          O  0.73965565  0.77947695  0.71924998    -0.87700
C2          C  0.68401637  0.74351574  0.72990784     0.88300
Mg3        Mg  0.76663463  0.76738245  0.69992384     1.58100
O4          O  0.71956636  0.74607866  0.77548806    -0.87500
O5          O  0.73383513  0.79107130  0.75312195    -0.74800
C6          C  0.78194310  0.66356878  0.73511761     0.93300
O7          O  0.71586025  0.74537241  0.68677697    -0.74600
O8          O  0.78465561  0.67552961  0.71791815    -0.82100
Mg9        Mg  0.70735183  0.77776106  0.70468226     1.58000
C10         C  0.73691802  0.69208266  0.81270368     0.93300
O11         O  0.69697522  0.81138127  0.72014206    -0.80400
H12         H  0.73719923  0.76410861  0.79680560    -0.05700
C13         C  0.72406290  0.69110465  0.73757153     0.88200
O14         O  0.78473788  0.75583174  0.73125597    -0.74900
O15         O  0.69650433  0.75939177  0.73326842    -0.87700
O16         O  0.71948455  0.70248845  0.80657791    -0.80500
C17         C  0.66105306  0.74418632  0.78905141     0.93400
C18         C  0.68750642  0.81875697  0.73749418     0.93200
Mg19       Mg  0.76203423  0.70481397  0.76731731     1.58000
O20         O  0.77232045  0.67098668  0.75236760    -0.80400
O21         O  0.75364524  0.73752656  0.78472804    -0.74600
O22         O  0.66834897  0.76088456  0.77827447    -0.80500
O23         O  0.71830088  0.79584509  0.67317722    -0.82200
O24         O  0.80037527  0.72071837  0.69368694    -0.80500
C25         C  0.73658091  0.74971441  0.78627667     0.87700
O26         O  0.77233437  0.72256157  0.73867819    -0.87600
O27         O  0.72948356  0.70252128  0.75367238    -0.87700
O28         O  0.73478159  0.69142039  0.71946431    -0.74800
Mg29       Mg  0.70157784  0.77471965  0.76484966     1.58000
O30         O  0.67303289  0.72716225  0.79259867    -0.82200
H31         H  0.75931269  0.80153192  0.73398896    -0.05900
O32         O  0.74962483  0.73629131  0.69668976    -0.87400
H33         H  0.73236254  0.71889700  0.67454849    -0.05700
H34         H  0.79651081  0.73660841  0.75623347    -0.05900
C35         C  0.73284983  0.73305617  0.68539724     0.87600
C36         C  0.74474775  0.79126635  0.73515762     0.88200
C37         C  0.78516901  0.73800046  0.74245204     0.88300
H38         H  0.70933694  0.68106550  0.73870183    -0.05900
O39         O  0.68453210  0.72607368  0.74183533    -0.74900
Mg40       Mg  0.76718204  0.70726999  0.70726373     1.58000
H41         H  0.67271175  0.74425711  0.71604849    -0.05900
C42         C  0.73498948  0.79255407  0.66076459     0.93300
O43         O  0.79675261  0.75523697  0.68105381    -0.82100
C44         C  0.80817053  0.73768201  0.68374466     0.93300
O45         O  0.68423917  0.80641547  0.75433337    -0.82100
Mg46       Mg  0.70295616  0.71487361  0.77350433     1.58200
O47         O  0.75157240  0.78127073  0.66748928    -0.80500
O48         O  0.75242616  0.68775458  0.79920620    -0.82100
C49         C  0.63355820  0.01818624  0.74880734     0.87100
C50         C  0.61930686  0.01352491  0.76939965    -0.53100
C51         C  0.60638792  0.99514700  0.76781971     0.10000
C52         C  0.60845832  0.98309744  0.74560912     0.21000
C53         C  0.64642519  0.99637292  0.74539003    -0.53900
C54         C  0.63335470  0.97783135  0.74408204     0.10100
C55         C  0.61685659  0.01916171  0.72974862    -0.53400
C56         C  0.60403886  0.00081999  0.72772785     0.10700
H57         H  0.62010587  0.02249661  0.78480193     0.15200
H58         H  0.59734773  0.96864080  0.74393628     0.01000
H59         H  0.66433818  0.99570141  0.74523314     0.15500
H60         H  0.61594656  0.03288343  0.71809051     0.15300
O61         O  0.76840352  0.27594823  0.75299413    -0.87700
C62         C  0.77377389  0.26225168  0.68794716     0.88300
Mg63       Mg  0.77044809  0.25077781  0.77762187     1.58100
O64         O  0.71973075  0.27271914  0.70551580    -0.87500
O65         O  0.74396841  0.30061618  0.74229655    -0.74800
C66         C  0.70657179  0.16861165  0.74252974     0.93300
O67         O  0.79739417  0.23847675  0.72934117    -0.74600
O68         O  0.72351548  0.17260297  0.75432863    -0.82100
Mg69       Mg  0.79422720  0.27635943  0.72857439     1.58000
C70         C  0.66767916  0.23427570  0.68588817     0.93300
O71         O  0.79450640  0.31448189  0.72661194    -0.80400
H72         H  0.69746288  0.29260801  0.71959341    -0.05700
C73         C  0.73611686  0.20764401  0.70055853     0.88200
O74         O  0.73252407  0.24859381  0.77935913    -0.74900
O75         O  0.76930006  0.27452541  0.70365948    -0.87700
O76         O  0.68339406  0.24597585  0.67809674    -0.80500
C77         C  0.73224700  0.29156905  0.65003457     0.93400
C78         C  0.78486746  0.33049849  0.71666019     0.93200
Mg79       Mg  0.69746032  0.22225902  0.72867290     1.58000
O80         O  0.69733746  0.18370587  0.73082136    -0.80400
O81         O  0.69388740  0.26017454  0.72764641    -0.74600
O82         O  0.74223626  0.30082270  0.66614594    -0.80500
O83         O  0.82174080  0.27688037  0.75454674    -0.82200
O84         O  0.74961058  0.19888658  0.79183957    -0.80500
C85         C  0.70341687  0.27589621  0.71739113     0.87700
O86         O  0.72210390  0.22486395  0.75401134    -0.87600
O87         O  0.72333645  0.22307925  0.70455338    -0.87700
O88         O  0.74722425  0.19817077  0.71574807    -0.74800
Mg89       Mg  0.74333766  0.29900441  0.70441918     1.58000
O90         O  0.72067861  0.27420100  0.65274997    -0.82200
H91         H  0.75319303  0.29604096  0.77427945    -0.05900
O92         O  0.77177993  0.22646190  0.75197202    -0.87400
H93         H  0.79350562  0.20615528  0.73766292    -0.05700
H94         H  0.70071434  0.23910537  0.77470353    -0.05900
C95         C  0.78785156  0.22296954  0.73987527     0.87600
C96         C  0.75545764  0.29119965  0.75723489     0.88200
C97         C  0.71772981  0.23728594  0.76963121     0.88300
H98         H  0.73843445  0.20255463  0.68359493    -0.05900
O99         O  0.75914910  0.25070058  0.67827502    -0.74900
Mg100      Mg  0.74796181  0.20053992  0.75367780     1.58000
H101        H  0.79080141  0.26066228  0.68284115    -0.05900
C102        C  0.82432719  0.26438466  0.77143117     0.93300
O103        O  0.77179514  0.22510898  0.80470471    -0.82100
C104        C  0.76043346  0.20768130  0.80763860     0.93300
O105        O  0.76739024  0.32781993  0.70522217    -0.82100
Mg106      Mg  0.72135629  0.24841552  0.67989281     1.58200
O107        O  0.80829451  0.25330340  0.77942179    -0.80500
O108        O  0.67062059  0.22114923  0.70222414    -0.82100
C109        C  0.88694975  0.49563813  0.77420859     0.87100
C110        C  0.87210666  0.47535881  0.77160664    -0.53100
C111        C  0.85912417  0.47530392  0.75304616     0.10000
C112        C  0.86176326  0.49657627  0.73890811     0.21000
C113        C  0.89974745  0.49691419  0.75217209    -0.53900
C114        C  0.88666915  0.49759232  0.73366933     0.10100
C115        C  0.87119547  0.51547733  0.77316402    -0.53400
C116        C  0.85778528  0.51613669  0.75488979     0.10700
H117        H  0.87235570  0.46187179  0.78353311     0.15200
H118        H  0.85117300  0.49719987  0.72398224     0.01000
H119        H  0.91752120  0.49715996  0.75080024     0.15500
H120        H  0.87149835  0.52842030  0.78553931     0.15300
C121        C  0.74240129  0.86427141  0.46765004     0.87100
C122        C  0.76348364  0.87818064  0.47018980    -0.53100
C123        C  0.76452053  0.89039251  0.48908636     0.10000
C124        C  0.74413133  0.88752348  0.50422712     0.21000
C125        C  0.74175449  0.85021322  0.48911607    -0.53900
C126        C  0.74263596  0.86234103  0.50816595     0.10100
C127        C  0.72335388  0.88074822  0.47042293    -0.53400
C128        C  0.72391634  0.89283135  0.48943231     0.10700
H129        H  0.77669635  0.87820751  0.45804840     0.15200
H130        H  0.74480768  0.89736024  0.51968679     0.01000
H131        H  0.74110368  0.83240952  0.49000117     0.15500
H132        H  0.70974208  0.88182670  0.45870871     0.15300
O133        O  0.71290280  0.73147430  0.22840718    -0.87700
C134        C  0.74662736  0.74186537  0.28587909     0.88300
Mg135      Mg  0.72807250  0.71464717  0.20110290     1.58100
O136        O  0.74101341  0.78962366  0.25314514    -0.87500
O137        O  0.69893373  0.76418196  0.23585012    -0.74800
C138        C  0.82809817  0.76044509  0.19282783     0.93300
O139        O  0.74939012  0.70089846  0.25199484    -0.74600
O140        O  0.81773616  0.74263425  0.18868931    -0.82100
Mg141      Mg  0.71537632  0.71567138  0.26014736     1.58000
C142        C  0.79332231  0.83185792  0.24167131     0.93300
O143        O  0.68015716  0.72712799  0.27076009    -0.80400
H144        H  0.72168793  0.81108733  0.23686987    -0.05700
C145        C  0.79914335  0.75705996  0.24869765     0.88200
O146        O  0.73699264  0.74817249  0.18519842    -0.74900
O147        O  0.73086078  0.74485008  0.27312680    -0.87700
O148        O  0.78257904  0.82344466  0.25782867    -0.80500
C149        C  0.74000741  0.80023716  0.31196893     0.93400
C150        C  0.67155123  0.74319115  0.28140132     0.93200
Mg151      Mg  0.78365633  0.78821452  0.21199424     1.58000
O152        O  0.81867107  0.77672307  0.20230452    -0.80400
O153        O  0.74949590  0.80255478  0.22026363    -0.74600
O154        O  0.72443724  0.78820648  0.30425506    -0.80500
O155        O  0.70069686  0.68405962  0.24680333    -0.82200
O156        O  0.77628087  0.71579292  0.16965807    -0.80500
C157        C  0.73686096  0.80163992  0.23701845     0.87700
O158        O  0.76865956  0.75872701  0.19947077    -0.87600
O159        O  0.78637881  0.77227591  0.24361935    -0.87700
O160        O  0.80054717  0.73948238  0.23734897    -0.74800
Mg161      Mg  0.71306094  0.77530033  0.26951061     1.58000
O162        O  0.75695376  0.80491470  0.30048497    -0.82200
H163        H  0.69075973  0.74629913  0.20869485    -0.05900
O164        O  0.75843397  0.71411369  0.21944323    -0.87400
H165        H  0.77729159  0.69218283  0.23563813    -0.05700
H166        H  0.75317315  0.77605189  0.17580241    -0.05900
C167        C  0.76225498  0.70184669  0.23543742     0.87600
C168        C  0.70035247  0.74703148  0.22378559     0.88200
C169        C  0.75320737  0.76150015  0.18627975     0.88300
H170        H  0.80872064  0.75837758  0.26375408    -0.05900
O171        O  0.76290718  0.75513438  0.28668271    -0.74900
Mg172      Mg  0.78672380  0.72842535  0.20386471     1.58000
H173        H  0.74685388  0.72721824  0.29621994    -0.05900
C174        C  0.70580206  0.67201622  0.23032667     0.93300
O175        O  0.74384419  0.69857574  0.17098022    -0.82100
C176        C  0.76142636  0.70390930  0.16066425     0.93300
O177        O  0.68238308  0.76080424  0.28526722    -0.82100
Mg178      Mg  0.77173671  0.78872946  0.27075751     1.58200
O179        O  0.71723999  0.67966010  0.21422710    -0.80500
O180        O  0.79808103  0.82048566  0.22463232    -0.82100
C181        C  0.73785421  0.61122340  0.99409811     0.87100
C182        C  0.73515785  0.62713150  0.97450028    -0.53100
C183        C  0.75280198  0.64057437  0.97079494     0.10000
C184        C  0.77173644  0.63742199  0.98772801     0.21000
C185        C  0.75976176  0.59896104  0.98973536    -0.53900
C186        C  0.77755365  0.61260621  0.98654598     0.10100
C187        C  0.74319512  0.62627090  0.01383600    -0.53400
C188        C  0.76078261  0.63987727  0.01058808     0.10700
H189        H  0.72094794  0.62675975  0.96347969     0.15200
H190        H  0.78599829  0.64862118  0.98495615     0.01000
H191        H  0.76115667  0.58104707  0.98985991     0.15500
H192        H  0.73502897  0.62587319  0.02972404     0.15300
C193        C  0.52362882  0.73995828  0.35929430     0.87100
C194        C  0.51998031  0.72217813  0.37725221    -0.53100
C195        C  0.50219107  0.72586135  0.39048292     0.10000
C196        C  0.48949441  0.74727162  0.38486705     0.21000
C197        C  0.50127127  0.74095277  0.34689769    -0.53900
C198        C  0.48337916  0.74481552  0.36026126     0.10100
C199        C  0.52468636  0.76181726  0.37207323    -0.53400
C200        C  0.50673551  0.76609983  0.38508446     0.10700
H201        H  0.52902636  0.70678338  0.37854468     0.15200
H202        H  0.47512191  0.75042701  0.39572750     0.01000
H203        H  0.49979738  0.73881784  0.32912717     0.15500
H204        H  0.53819361  0.77346599  0.37008941     0.15300
C205        C  0.12862470  0.97348385  0.76339905     0.87100
C206        C  0.11403905  0.97375034  0.74272677    -0.53100
C207        C  0.10306350  0.99311761  0.73902381     0.10000
C208        C  0.10694686  0.01052981  0.75717496     0.21000
C209        C  0.14363215  0.99406714  0.76096150    -0.53900
C210        C  0.13226234  0.01346253  0.75731884     0.10100
C211        C  0.11320901  0.97971966  0.78247415    -0.53400
C212        C  0.10174203  0.99884824  0.77931180     0.10700
H213        H  0.11342755  0.96000816  0.73121159     0.15200
H214        H  0.09749928  0.02610410  0.75478160     0.01000
H215        H  0.16151867  0.99339606  0.76179007     0.15500
H216        H  0.11236470  0.97071324  0.79802970     0.15300
C217        C  0.75288707  0.13878131  0.96121392     0.87100
C218        C  0.73301229  0.12314912  0.96256217    -0.53100
C219        C  0.73169932  0.11131419  0.98177556     0.10000
C220        C  0.75055272  0.11619570  0.99825672     0.21000
C221        C  0.75094105  0.15327859  0.98217526    -0.53900
C222        C  0.74979680  0.14148410  0.00160050     0.10100
C223        C  0.77310533  0.12418614  0.96594230    -0.53400
C224        C  0.77195359  0.11239537  0.98516455     0.10700
H225        H  0.72074761  0.12179738  0.94948199     0.15200
H226        H  0.74981450  0.10635458  0.01378870     0.01000
H227        H  0.75093222  0.17116476  0.98216910     0.15500
H228        H  0.78760687  0.12391374  0.95537766     0.15300
C229        C  0.35941765  0.51293198  0.75244266     0.87100
C230        C  0.37664206  0.51122784  0.73408720    -0.53100
C231        C  0.38968551  0.49285772  0.73518742     0.10000
C232        C  0.38461790  0.47771833  0.75507924     0.21000
C233        C  0.34661124  0.49082790  0.75155477    -0.53900
C234        C  0.35978516  0.47235432  0.75297704     0.10100
C235        C  0.37261698  0.51098823  0.77413227    -0.53400
C236        C  0.38594977  0.49288576  0.77540094     0.10700
H237        H  0.37780724  0.52324856  0.72070470     0.15200
H238        H  0.39557179  0.46300782  0.75606484     0.01000
H239        H  0.32877618  0.48957991  0.75134702     0.15500
H240        H  0.37147314  0.52284518  0.78753465     0.15300
C241        C  0.72561503  0.39309872  0.48310240     0.87100
C242        C  0.72512604  0.37381595  0.49941839    -0.53100
C243        C  0.74387676  0.36142272  0.50035451     0.10000
C244        C  0.76196910  0.36952073  0.48418853     0.21000
C245        C  0.74637080  0.40641845  0.49000069    -0.53900
C246        C  0.76540362  0.39399106  0.49038323     0.10100
C247        C  0.73193752  0.38297256  0.46086207    -0.53400
C248        C  0.75084729  0.37067994  0.46117190     0.10700
H249        H  0.71126133  0.37112575  0.51051263     0.15200
H250        H  0.77737131  0.35952917  0.48459084     0.01000
H251        H  0.74650928  0.42393375  0.49367822     0.15500
H252        H  0.72225697  0.38556329  0.44590219     0.15300
C253        C  0.61028248  0.50724329  0.27485111     0.87100
C254        C  0.62809161  0.52492619  0.27172404    -0.53100
C255        C  0.64095824  0.52218562  0.25347146     0.10000
C256        C  0.63498764  0.50157034  0.23988938     0.21000
C257        C  0.59724625  0.50749838  0.25270692    -0.53900
C258        C  0.61028078  0.50421441  0.23439719     0.10100
C259        C  0.62257630  0.48505122  0.27440036    -0.53400
C260        C  0.63547106  0.48196575  0.25624276     0.10700
H261        H  0.62962806  0.53913091  0.28256804     0.15200
H262        H  0.64570002  0.49942117  0.22518249     0.01000
H263        H  0.57947730  0.50900971  0.25136567     0.15500
H264        H  0.62066312  0.47247470  0.28716807     0.15300
C265        C  0.26461247  0.61352525  0.50981538     0.87100
C266        C  0.25977762  0.62972908  0.52867930    -0.53100
C267        C  0.24216083  0.64322334  0.52495698     0.10000
C268        C  0.23082055  0.63963779  0.50240931     0.21000
C269        C  0.24258125  0.60128807  0.50620842    -0.53900
C270        C  0.22463227  0.61481318  0.50230771     0.10100
C271        C  0.26712191  0.62855418  0.48948696    -0.53400
C272        C  0.24936530  0.64180615  0.48505648     0.10700
H273        H  0.26874045  0.63062978  0.54414164     0.15200
H274        H  0.21704426  0.65111284  0.49913907     0.01000
H275        H  0.24152192  0.58340358  0.50716970     0.15500
H276        H  0.28172211  0.62826136  0.47908515     0.15300
C277        C  0.99935856  0.73469597  0.11010008     0.87100
C278        C  0.98024073  0.73811488  0.12628447    -0.53100
C279        C  0.98251520  0.75580793  0.13981793     0.10000
C280        C  0.00389118  0.76903459  0.13591640     0.21000
C281        C  0.00055938  0.75711655  0.09753289    -0.53900
C282        C  0.00320789  0.77518455  0.11111072     0.10100
C283        C  0.02021470  0.73421260  0.12445098    -0.53400
C284        C  0.02292412  0.75215066  0.13776188     0.10700
H285        H  0.96548430  0.72788421  0.12639641     0.15200
H286        H  0.00576247  0.78314625  0.14739796     0.01000
H287        H  0.99825765  0.75893059  0.07987947     0.15500
H288        H  0.03245451  0.72111997  0.12321189     0.15300
O289        O  0.25226901  0.72804275  0.27707178    -0.87700
C290        C  0.19860109  0.76760274  0.26699214     0.88300
Mg291      Mg  0.28064012  0.73820552  0.29522868     1.58100
O292        O  0.23196194  0.76154708  0.22008032    -0.87500
O293        O  0.24453472  0.71649608  0.24354240    -0.74800
C294        C  0.30110721  0.83921522  0.25604793     0.93300
O295        O  0.23236851  0.76522062  0.30894753    -0.74600
O296        O  0.30468559  0.82699271  0.27288303    -0.82100
Mg297      Mg  0.22074163  0.73314872  0.29234711     1.58000
C298        C  0.24965905  0.81471346  0.18142895     0.93300
O299        O  0.20769981  0.70007530  0.27866372    -0.80400
H300        H  0.24640077  0.74205249  0.19772223    -0.05700
C301        C  0.24215546  0.81635932  0.25674558     0.88200
O302        O  0.29840280  0.74731659  0.26278670    -0.74900
O303        O  0.21039160  0.75123477  0.26362858    -0.87700
O304        O  0.23229763  0.80536178  0.18894450    -0.80500
C305        C  0.17375136  0.76618401  0.20798180     0.93400
C306        C  0.19716163  0.69273669  0.26195717     0.93200
Mg307      Mg  0.27724637  0.79921071  0.22520512     1.58000
O308        O  0.29029489  0.83218580  0.23933476    -0.80400
O309        O  0.26580135  0.76716264  0.20848918    -0.74600
O310        O  0.18028570  0.74982405  0.21973202    -0.80500
O311        O  0.23087158  0.71538680  0.32377058    -0.82200
O312        O  0.31872133  0.78144657  0.29789750    -0.80500
C313        C  0.24774163  0.75647102  0.20815079     0.87700
O314        O  0.28775330  0.78091247  0.25395647    -0.87600
O315        O  0.24564106  0.80428231  0.24060545    -0.87700
O316        O  0.25398207  0.81550332  0.27419387    -0.74800
Mg317      Mg  0.21292860  0.73455818  0.23254624     1.58000
O318        O  0.18623534  0.78264242  0.20381284    -0.82200
H319        H  0.26995626  0.70459810  0.26202277    -0.05900
O320        O  0.26643435  0.77054680  0.29778534    -0.87400
H321        H  0.25181329  0.79023134  0.31986317    -0.05700
H322        H  0.31006051  0.76428996  0.23620830    -0.05900
C323        C  0.25051570  0.77577357  0.30948195     0.87600
C324        C  0.25601453  0.71576436  0.26117632     0.88200
C325        C  0.29931239  0.76440730  0.25046939     0.88300
H326        H  0.22822525  0.82755798  0.25624489    -0.05900
O327        O  0.19934534  0.78464663  0.25460433    -0.74900
Mg328      Mg  0.28571647  0.79730381  0.28524534     1.58000
H329        H  0.18779312  0.76764611  0.28120929    -0.05900
C330        C  0.24800819  0.71729477  0.33583694     0.93300
O331        O  0.31192091  0.74842914  0.31295075    -0.82100
C332        C  0.32503786  0.76438672  0.30883220     0.93300
O333        O  0.19397685  0.70464484  0.24480417    -0.82100
Mg334      Mg  0.21721455  0.79373785  0.22223508     1.58200
O335        O  0.26551482  0.72665155  0.32864529    -0.80500
O336        O  0.26690756  0.81698046  0.19334793    -0.82100
C337        C  0.25083695  0.86474731  0.98102678     0.87100
C338        C  0.27231757  0.87819743  0.98334834    -0.53100
C339        C  0.27274995  0.89220607  0.00087199     0.10000
C340        C  0.25148770  0.89175946  0.01482821     0.21000
C341        C  0.24861202  0.85311750  0.00372571    -0.53900
C342        C  0.24893914  0.86720514  0.02150206     0.10100
C343        C  0.23236313  0.88207228  0.98075407    -0.53400
C344        C  0.23235461  0.89615232  0.99837491     0.10700
H345        H  0.28710138  0.87574597  0.97365550     0.15200
H346        H  0.25179726  0.90336952  0.02899785     0.01000
H347        H  0.24768201  0.83526686  0.00548633     0.15500
H348        H  0.21949381  0.88220199  0.96820301     0.15300
C349        C  0.47014449  0.25301843  0.63725372     0.87100
C350        C  0.46882635  0.23028416  0.62603598    -0.53100
C351        C  0.48572232  0.22577335  0.61186761     0.10000
C352        C  0.50228134  0.24491882  0.60937771     0.21000
C353        C  0.49344928  0.25366735  0.64769964    -0.53900
C354        C  0.51018869  0.24921717  0.63312542     0.10100
C355        C  0.47144818  0.26930666  0.61763240    -0.53400
C356        C  0.48836555  0.26535913  0.60335111     0.10700
H357        H  0.45578940  0.21843169  0.62948814     0.15200
H358        H  0.51589209  0.24164764  0.59753889     0.01000
H359        H  0.49635328  0.25668313  0.66516468     0.15500
H360        H  0.46099354  0.28349537  0.61499971     0.15300
O361        O  0.23822848  0.28172863  0.77245341    -0.87700
C362        C  0.29322119  0.24353826  0.76843527     0.88300
Mg363      Mg  0.20905396  0.27034137  0.78891749     1.58100
O364        O  0.26305377  0.24813910  0.71926934    -0.87500
O365        O  0.24797513  0.29340556  0.73952656    -0.74800
C366        C  0.19262550  0.16869698  0.75027450     0.93300
O367        O  0.25692246  0.24626048  0.80702156    -0.74600
O368        O  0.18904575  0.18044373  0.76733406    -0.82100
Mg369      Mg  0.26877183  0.27848847  0.79027013     1.58000
C370        C  0.24926516  0.19636449  0.67993469     0.93300
O371        O  0.28295881  0.31183855  0.77648830    -0.80400
H372        H  0.24961768  0.26724834  0.69573200    -0.05700
C373        C  0.25172689  0.19271580  0.75511035     0.88200
O374        O  0.19347081  0.26046076  0.75574316    -0.74900
O375        O  0.28190925  0.25991051  0.76340128    -0.87700
O376        O  0.26576501  0.20593011  0.68890668    -0.80500
C377        C  0.32251840  0.24482738  0.71184320     0.93400
C378        C  0.29462032  0.31826525  0.76004592     0.93200
Mg379      Mg  0.21830060  0.20924205  0.72123076     1.58000
O380        O  0.20411477  0.17590572  0.73405304    -0.80400
O381        O  0.23021508  0.24164072  0.70536894    -0.74600
O382        O  0.31411070  0.26136891  0.72171095    -0.80500
O383        O  0.25512667  0.29672015  0.81967974    -0.82200
O384        O  0.17271167  0.22500000  0.79156210    -0.80500
C385        C  0.24797564  0.25277974  0.70618769     0.87700
O386        O  0.20521463  0.22688904  0.74882575    -0.87600
O387        O  0.24889125  0.20507833  0.73897146    -0.87700
O388        O  0.23906045  0.19316874  0.77184302    -0.74800
Mg389      Mg  0.28057150  0.27570541  0.73157162     1.58000
O390        O  0.31108626  0.22764843  0.70767189    -0.82200
H391        H  0.22101846  0.30470663  0.75587001    -0.05900
O392        O  0.22430891  0.23854214  0.79315459    -0.87400
H393        H  0.23827204  0.22017606  0.81699665    -0.05700
H394        H  0.18349659  0.24251208  0.72926831    -0.05900
C395        C  0.23953366  0.23448678  0.80627058     0.87600
C396        C  0.23524098  0.29387887  0.75619486     0.88200
C397        C  0.19346735  0.24300364  0.74412197     0.88300
H398        H  0.26583407  0.18173425  0.75530715    -0.05900
O399        O  0.29331273  0.22605187  0.75680038    -0.74900
Mg400      Mg  0.20653556  0.21069652  0.78048294     1.58000
H401        H  0.30274550  0.24384787  0.78358611    -0.05900
C402        C  0.23765873  0.29325810  0.83086834     0.93300
O403        O  0.17735899  0.25890618  0.80500818    -0.82100
C404        C  0.16533947  0.24196694  0.80166940     0.93300
O405        O  0.29814509  0.30580998  0.74357403    -0.82100
Mg406      Mg  0.27842237  0.21645205  0.72315382     1.58200
O407        O  0.22145390  0.28236409  0.82296322    -0.80500
O408        O  0.23165853  0.19225067  0.69070229    -0.82100
C409        C  0.96851538  0.26104093  0.85749832     0.87100
C410        C  0.97348022  0.28105465  0.87250659    -0.53100
C411        C  0.99170485  0.27842041  0.88559316     0.10000
C412        C  0.00340884  0.25609270  0.88270811     0.21000
C413        C  0.99028438  0.25763266  0.84464276    -0.53900
C414        C  0.00860818  0.25514338  0.85782657     0.10100
C415        C  0.96729078  0.24124190  0.87350052    -0.53400
C416        C  0.98561782  0.23835748  0.88635372     0.10700
H417        H  0.96462660  0.29660319  0.87229079     0.15200
H418        H  0.01791394  0.25377514  0.89372494     0.01000
H419        H  0.99108390  0.25765329  0.82669529     0.15500
H420        H  0.95366893  0.22955949  0.87350724     0.15300
O421        O  0.75183904  0.21972784  0.21372940    -0.87700
C422        C  0.80684966  0.25725564  0.22249942     0.88300
Mg423      Mg  0.72339253  0.23157526  0.19647429     1.58100
O424        O  0.77432116  0.25225152  0.27020742    -0.87500
O425        O  0.75981615  0.20770025  0.24713148    -0.74800
C426        C  0.70556864  0.33228593  0.23708492     0.93300
O427        O  0.77234917  0.25647305  0.18167755    -0.74600
O428        O  0.70226381  0.32080373  0.21980160    -0.82100
Mg429      Mg  0.78319122  0.22361413  0.19778883     1.58000
C430        C  0.76030282  0.30659575  0.30906322     0.93300
O431        O  0.79561645  0.18976843  0.21133579    -0.80400
H432        H  0.76018006  0.23343888  0.29349049    -0.05700
C433        C  0.76499256  0.30853555  0.23421031     0.88200
O434        O  0.70711971  0.24090499  0.22960013    -0.74900
O435        O  0.79508436  0.24096529  0.22635053    -0.87700
O436        O  0.77674434  0.29595869  0.30127432    -0.80500
C437        C  0.83243363  0.25450265  0.28229005     0.93400
C438        C  0.80623857  0.18218152  0.22802231     0.93200
Mg439      Mg  0.73048720  0.29188340  0.26671841     1.58000
O440        O  0.71703921  0.32498487  0.25328132    -0.80400
O441        O  0.74146862  0.25948240  0.28339477    -0.74600
O442        O  0.82559858  0.23791403  0.27118770    -0.80500
O443        O  0.77127304  0.20674053  0.16636114    -0.82200
O444        O  0.68730097  0.27639392  0.19540580    -0.80500
C445        C  0.75896504  0.24789289  0.28294573     0.87700
O446        O  0.71873894  0.27411551  0.23834270    -0.87600
O447        O  0.76152370  0.29600559  0.25009600    -0.87700
O448        O  0.75292424  0.30837012  0.21694988    -0.74800
Mg449      Mg  0.79219449  0.22441940  0.25775827     1.58000
O450        O  0.82056385  0.27169299  0.28476266    -0.82200
H451        H  0.73370398  0.19678364  0.22917049    -0.05900
O452        O  0.73894548  0.26344429  0.19392734    -0.87400
H453        H  0.75394072  0.28275251  0.17159860    -0.05700
H454        H  0.69678042  0.25760749  0.25673859    -0.05900
C455        C  0.75478726  0.26804961  0.18182947     0.87600
C456        C  0.74800163  0.20746720  0.22972040     0.88200
C457        C  0.70700532  0.25777798  0.24209485     0.88300
H458        H  0.77911887  0.31944659  0.23473315    -0.05900
O459        O  0.80643790  0.27439310  0.23459825    -0.74900
Mg460      Mg  0.72066942  0.29088795  0.20693821     1.58000
H461        H  0.81725678  0.25719965  0.20798521    -0.05900
C462        C  0.75388302  0.20955161  0.15475228     0.93300
O463        O  0.69186642  0.24348026  0.17974221    -0.82100
C464        C  0.67973269  0.26000992  0.18455268     0.93300
O465        O  0.80978219  0.19393728  0.24511220    -0.82100
Mg466      Mg  0.78994212  0.28397094  0.26740146     1.58200
O467        O  0.73699009  0.21964652  0.16243583    -0.80500
O468        O  0.74279633  0.30960644  0.29766297    -0.82100
C469        C  0.88190233  0.00599065  0.27782920     0.87100
C470        C  0.86683502  0.98570844  0.27467211    -0.53100
C471        C  0.85593533  0.98534006  0.25496887     0.10000
C472        C  0.86080181  0.00545831  0.23995639     0.21000
C473        C  0.89710245  0.00584721  0.25742909    -0.53900
C474        C  0.88612066  0.00569086  0.23761887     0.10100
C475        C  0.86650235  0.02583147  0.27411070    -0.53400
C476        C  0.85576514  0.02600060  0.25419197     0.10700
H477        H  0.86515055  0.97204182  0.28614161     0.15200
H478        H  0.85175387  0.00515925  0.22396085     0.01000
H479        H  0.91500040  0.00583780  0.25863330     0.15500
H480        H  0.86545291  0.03946096  0.28571628     0.15300
C481        C  0.02272436  0.26182772  0.35859368     0.87100
C482        C  0.02157407  0.23972980  0.37116095    -0.53100
C483        C  0.00258524  0.23660178  0.38290311     0.10000
C484        C  0.98613133  0.25598927  0.38093131     0.21000
C485        C  0.00166939  0.26189124  0.34409539    -0.53900
C486        C  0.98257126  0.25874442  0.35580863     0.10100
C487        C  0.01831587  0.27953790  0.37600747    -0.53400
C488        C  0.99937114  0.27663864  0.38771626     0.10700
H489        H  0.03482948  0.22760206  0.37090916     0.15200
H490        H  0.97062549  0.25361031  0.39044005     0.01000
H491        H  0.00141703  0.26362357  0.32626549     0.15500
H492        H  0.02910344  0.29368303  0.37847017     0.15300
O493        O  0.28066425  0.23843590  0.23117868    -0.87700
C494        C  0.28310009  0.25246047  0.29699994     0.88300
Mg495      Mg  0.28252012  0.26284610  0.20585897     1.58100
O496        O  0.22987147  0.24058726  0.27722356    -0.87500
O497        O  0.25672176  0.21331639  0.24166220    -0.74800
C498        C  0.21478520  0.34356544  0.23887121     0.93300
O499        O  0.30692181  0.27716902  0.25500724    -0.74600
O500        O  0.23079214  0.34025218  0.22565505    -0.82100
Mg501      Mg  0.30535953  0.23910456  0.25653432     1.58000
C502        C  0.17646122  0.27895384  0.29448071     0.93300
O503        O  0.30660620  0.20070424  0.25864460    -0.80400
H504        H  0.20836625  0.21987739  0.26310991    -0.05700
C505        C  0.24519859  0.30601647  0.28131128     0.88200
O506        O  0.24449381  0.26351331  0.20337961    -0.74900
O507        O  0.27949885  0.24052426  0.28081600    -0.87700
O508        O  0.19187421  0.26729244  0.30305060    -0.80500
C509        C  0.23902916  0.22082626  0.33294486     0.93400
C510        C  0.29737377  0.18476891  0.26911511     0.93200
Mg511      Mg  0.20750322  0.28996108  0.25277433     1.58000
O512        O  0.20701642  0.32811364  0.25099284    -0.80400
O513        O  0.20426361  0.25204449  0.25417254    -0.74600
O514        O  0.25097873  0.21281258  0.31753586    -0.80500
O515        O  0.33385239  0.23909088  0.23151481    -0.82200
O516        O  0.25839894  0.31267812  0.18910181    -0.80500
C517        C  0.21389906  0.23675812  0.26503627     0.87700
O518        O  0.23266510  0.28724985  0.22807315    -0.87600
O519        O  0.23282285  0.29010537  0.27774106    -0.87700
O520        O  0.25559429  0.31581507  0.26578429    -0.74800
Mg521      Mg  0.25450570  0.21525195  0.27944778     1.58000
O522        O  0.22776499  0.23843917  0.33004395    -0.82200
H523        H  0.26661601  0.21750412  0.20988702    -0.05900
O524        O  0.28226231  0.28822100  0.23056299    -0.87400
H525        H  0.30249269  0.30926347  0.24599104    -0.05700
H526        H  0.21220440  0.27163227  0.20736810    -0.05900
C527        C  0.29750035  0.29226828  0.24364153     0.87600
C528        C  0.26829281  0.22275589  0.22688372     0.88200
C529        C  0.22905252  0.27430357  0.21267434     0.88300
H530        H  0.24756981  0.31149199  0.29815362    -0.05900
O531        O  0.26775631  0.26319286  0.30647283    -0.74900
Mg532      Mg  0.25690804  0.31296636  0.22759826     1.58000
H533        H  0.29987978  0.25432525  0.30284950    -0.05900
C534        C  0.33697951  0.25084808  0.21420245     0.93300
O535        O  0.28267864  0.28744425  0.17773049    -0.82100
C536        C  0.26950315  0.30340185  0.17375772     0.93300
O537        O  0.27993858  0.18770794  0.28048647    -0.82100
Mg538      Mg  0.22996609  0.26490812  0.30293966     1.58200
O539        O  0.32104389  0.26139446  0.20501448    -0.80500
O540        O  0.17995852  0.29164580  0.27800801    -0.82100
C541        C  0.27721832  0.38886235  0.99548306     0.87100
C542        C  0.27106407  0.37415753  0.97568701    -0.53100
C543        C  0.25275757  0.36147842  0.97893016     0.10000
C544        C  0.24189382  0.36464391  0.00166757     0.21000
C545        C  0.25603196  0.40235787  0.99990152    -0.53900
C546        C  0.23735467  0.38977312  0.00318366     0.10100
C547        C  0.27885707  0.37265897  0.01499228    -0.53400
C548        C  0.26045331  0.36025377  0.01847365     0.10700
H549        H  0.27991385  0.37331686  0.96020265     0.15200
H550        H  0.22759770  0.35365655  0.00463607     0.01000
H551        H  0.25598066  0.42030411  0.00009643     0.15500
H552        H  0.29309509  0.37192797  0.02595496     0.15300
C553        C  0.38976684  0.01304370  0.22228816     0.87100
C554        C  0.37424767  0.03315221  0.22391618    -0.53100
C555        C  0.36116189  0.03326175  0.24230931     0.10000
C556        C  0.36474368  0.01293795  0.25752395     0.21000
C557        C  0.40265736  0.01322194  0.24418130    -0.53900
C558        C  0.38966073  0.01313362  0.26260403     0.10100
C559        C  0.37434426  0.99304082  0.22401336    -0.53400
C560        C  0.36165958  0.99262440  0.24258440     0.10700
H561        H  0.37423475  0.04701426  0.21259782     0.15200
H562        H  0.35412920  0.01272788  0.27248670     0.01000
H563        H  0.42057472  0.01267349  0.24497214     0.15500
H564        H  0.37471050  0.97936037  0.21241530     0.15300
O565        O  0.01698625  0.03559948  0.48376867    -0.87700
C566        C  0.00451833  0.04208893  0.54870658     0.88300
Mg567      Mg  0.99158257  0.03827110  0.45944181     1.58100
O568        O  0.01458903  0.98781222  0.53202949    -0.87500
O569        O  0.04180683  0.01134155  0.49461603    -0.74800
C570        C  0.91000995  0.97309852  0.49516373     0.93300
O571        O  0.98074393  0.06508187  0.50768181    -0.74600
O572        O  0.91297204  0.99029797  0.48320607    -0.82100
Mg573      Mg  0.01879384  0.06174240  0.50747088     1.58000
C574        C  0.97633214  0.93573744  0.55087279     0.93300
O575        O  0.05730648  0.06081904  0.50749296    -0.80400
H576        H  0.03431904  0.96589835  0.51723479    -0.05700
C577        C  0.94903588  0.00392893  0.53683800     0.88200
O578        O  0.98922310  0.00043496  0.45719661    -0.74900
O579        O  0.01693092  0.03741155  0.53313944    -0.87700
O580        O  0.98754362  0.95140490  0.55947967    -0.80500
C581        C  0.03359357  0.00034924  0.58746447     0.93400
C582        C  0.07326626  0.05130186  0.51770001     0.93200
Mg583      Mg  0.96415825  0.96584561  0.50835998     1.58000
O584        O  0.92575862  0.96472785  0.50660541    -0.80400
O585        O  0.00196758  0.96276472  0.50907844    -0.74600
O586        O  0.04300446  0.01039492  0.57133846    -0.80500
O587        O  0.01914073  0.08914506  0.48120451    -0.82200
O588        O  0.93987832  0.01751516  0.44562733    -0.80500
C589        C  0.01765513  0.97183037  0.51968742     0.87700
O590        O  0.96594863  0.99039646  0.48310816    -0.87600
O591        O  0.96479691  0.99161027  0.53265709    -0.87700
O592        O  0.93900678  0.01469601  0.52174013    -0.74800
Mg593      Mg  0.04092514  0.01124690  0.53266373     1.58000
O594        O  0.01600773  0.98916675  0.58461548    -0.82200
H595        H  0.03642064  0.01957149  0.46245493    -0.05900
O596        O  0.96731000  0.03973206  0.48538129    -0.87400
H597        H  0.94805800  0.06157052  0.50096023    -0.05700
H598        H  0.97909753  0.96877849  0.46193416    -0.05900
C599        C  0.96464016  0.05570976  0.49787966     0.87600
C600        C  0.03199913  0.02236453  0.47953952     0.88200
C601        C  0.97780803  0.98582233  0.46711677     0.88300
H602        H  0.94405476  0.00607051  0.55386358    -0.05900
O603        O  0.99278367  0.02759115  0.55847782    -0.74900
Mg604      Mg  0.94112780  0.01569283  0.48376203     1.58000
H605        H  0.00296825  0.05920105  0.55359128    -0.05900
C606        C  0.00544703  0.09207931  0.46541181     0.93300
O607        O  0.96604995  0.03978559  0.43245886    -0.82100
C608        C  0.94890482  0.02802192  0.42967413     0.93300
O609        O  0.06999688  0.03504584  0.53083664    -0.82100
Mg610      Mg  0.99015854  0.98966375  0.55744739     1.58200
O611        O  0.99381917  0.07616869  0.45803880    -0.80500
O612        O  0.96373688  0.93898562  0.53428763    -0.82100
O613        O  0.02224093  0.97382026  0.00484459    -0.87700
C614        C  0.01201720  0.01030083  0.06014137     0.88300
Mg615      Mg  0.04047338  0.98676061  0.97732644     1.58100
O616        O  0.96547146  0.00584854  0.02621654    -0.87500
O617        O  0.98880062  0.96153364  0.01167200    -0.74800
C618        C  0.00016930  0.08813493  0.95945995     0.93300
O619        O  0.05382686  0.00957643  0.02721657    -0.74600
O620        O  0.01816397  0.07732010  0.95816293    -0.82100
Mg621      Mg  0.03730650  0.97659334  0.03679913     1.58000
C622        C  0.92632897  0.05900537  0.01012133     0.93300
O623        O  0.02344924  0.94260889  0.04835444    -0.80400
H624        H  0.94347046  0.98706303  0.01031482    -0.05700
C625        C  0.00095323  0.06247688  0.01927951     0.88200
O626        O  0.00801706  0.99640892  0.95989942    -0.74900
O627        O  0.00861698  0.99410745  0.04811759    -0.87700
O628        O  0.93347315  0.04866641  0.02722467    -0.80500
C629        C  0.95326519  0.00770036  0.08480969     0.93400
C630        C  0.00660847  0.93485794  0.05845820     0.93200
Mg631      Mg  0.97024748  0.04651695  0.98256285     1.58000
O632        O  0.98319822  0.08019820  0.96919140    -0.80400
O633        O  0.95401698  0.01363880  0.99264834    -0.74600
O634        O  0.96430738  0.99124856  0.07753891    -0.80500
O635        O  0.06872712  0.95941084  0.02536100    -0.82200
O636        O  0.04226416  0.03277005  0.94251535    -0.80500
C637        C  0.95373727  0.00168270  0.00999410     0.87700
O638        O  0.99907398  0.02949600  0.97181577    -0.87600
O639        O  0.98530180  0.05017875  0.01458784    -0.87700
O640        O  0.01879442  0.06254921  0.00821682    -0.74800
Mg641      Mg  0.97746948  0.97771426  0.04414648     1.58000
O642        O  0.94955542  0.02470155  0.07281688    -0.82200
H643        H  0.00739915  0.95135413  0.98573699    -0.05900
O644        O  0.04212550  0.01804026  0.99381578    -0.87400
H645        H  0.06424649  0.03649612  0.00996446    -0.05700
H646        H  0.98152997  0.01376905  0.94867086    -0.05900
C647        C  0.05394890  0.02189712  0.01008389     0.87600
C648        C  0.00644094  0.96166692  0.00026974     0.88200
C649        C  0.99573953  0.01349832  0.95953655     0.88300
H650        H  0.99972762  0.07286944  0.03373502    -0.05900
O651        O  0.99974601  0.02742253  0.05960490    -0.74900
Mg652      Mg  0.03006977  0.04627648  0.97589554     1.58000
H653        H  0.02625738  0.01015811  0.07096783    -0.05900
C654        C  0.08118396  0.96406093  0.00901990     0.93300
O655        O  0.05798496  0.99971750  0.94642348    -0.82100
C656        C  0.05307602  0.01654567  0.93456449     0.93300
O657        O  0.98945379  0.94662212  0.06166384    -0.82100
Mg658      Mg  0.96722340  0.03733025  0.04223135     1.58200
O659        O  0.07418838  0.97535798  0.99245076    -0.80500
O660        O  0.93881238  0.06311826  0.99368159    -0.82100
O661        O  0.47682188  0.03622792  0.49164091    -0.87700
C662        C  0.48079745  0.99773409  0.54643270     0.88300
Mg663      Mg  0.46030647  0.02554107  0.46257082     1.58100
O664        O  0.52988185  0.00048341  0.51601291    -0.87500
O665        O  0.51024062  0.04664492  0.50091553    -0.74800
C666        C  0.49539179  0.92137570  0.44631877     0.93300
O667        O  0.44192965  0.00136015  0.51012473    -0.74600
O668        O  0.47918962  0.93406899  0.44149032    -0.82100
Mg669      Mg  0.45908968  0.03320666  0.52204950     1.58000
C670        C  0.56760321  0.94592339  0.50258729     0.93300
O671        O  0.47385557  0.06601796  0.53551380    -0.80400
H672        H  0.55411647  0.01827844  0.50229096    -0.05700
C673        C  0.49184838  0.94631332  0.50483389     0.88200
O674        O  0.49342116  0.01442529  0.44750278    -0.74900
O675        O  0.48602775  0.01402865  0.53508730    -0.87700
O676        O  0.55938574  0.95636717  0.51898473    -0.80500
C677        C  0.53785447  0.99673859  0.57534046     0.93400
C678        C  0.49039975  0.07249407  0.54694634     0.93200
Mg679      Mg  0.52628974  0.96098110  0.47165526     1.58000
O680        O  0.51151472  0.92816151  0.45817771    -0.80400
O681        O  0.54361321  0.99269575  0.48338038    -0.74600
O682        O  0.52874317  0.01405763  0.56731290    -0.80500
O683        O  0.42908527  0.05217181  0.50875009    -0.82200
O684        O  0.45770206  0.98141647  0.42514686    -0.80500
C685        C  0.54311107  0.00428258  0.50087977     0.87700
O686        O  0.49951013  0.98021448  0.45843358    -0.87600
O687        O  0.50847307  0.95792788  0.50207724    -0.87700
O688        O  0.47526323  0.94736832  0.49188370    -0.74800
Mg689      Mg  0.51830221  0.02881983  0.53356978     1.58000
O690        O  0.54085643  0.97943332  0.56378976    -0.82200
H691        H  0.49371380  0.05872412  0.47422582    -0.05900
O692        O  0.45542584  0.99360707  0.47733680    -0.87400
H693        H  0.43152283  0.97559915  0.49137951    -0.05700
H694        H  0.51971293  0.99612881  0.43764154    -0.05900
C695        C  0.44240982  0.98970263  0.49264570     0.87600
C696        C  0.49333844  0.04783818  0.48847121     0.88200
C697        C  0.50471853  0.99665634  0.44730668     0.88300
H698        H  0.49114680  0.93539193  0.51903820    -0.05900
O699        O  0.49196863  0.97988274  0.54636877    -0.74900
Mg700      Mg  0.46733992  0.96544231  0.45914271     1.58000
H701        H  0.46582769  0.99844155  0.55612484    -0.05900
C702        C  0.41805177  0.04927400  0.49098929     0.93300
O703        O  0.44435137  0.01525964  0.43085799    -0.82100
C704        C  0.44813882  0.99901593  0.41815979     0.93300
O705        O  0.50676289  0.05981973  0.55093895    -0.82100
Mg706      Mg  0.52509061  0.96877591  0.53141743     1.58200
O707        O  0.42624669  0.03865446  0.47471892    -0.80500
O708        O  0.55623161  0.94223408  0.48519345    -0.82100
C709        C  0.25097559  0.14233657  0.52312024     0.87100
C710        C  0.26984830  0.12634699  0.51750424    -0.53100
C711        C  0.26629379  0.11378566  0.49924952     0.10000
C712        C  0.24378555  0.11820923  0.48792119     0.21000
C713        C  0.24763570  0.15585575  0.50173646    -0.53900
C714        C  0.24382736  0.14348701  0.48301228     0.10100
C715        C  0.23057347  0.12745972  0.52472833    -0.53400
C716        C  0.22652292  0.11497675  0.50647813     0.10700
H717        H  0.28521667  0.12478689  0.52649313     0.15200
H718        H  0.24044713  0.10730203  0.47368479     0.01000
H719        H  0.24893745  0.17374141  0.50166365     0.15500
H720        H  0.21971596  0.12737494  0.53902281     0.15300
O721        O  0.48239810  0.96275395  0.97767377    -0.87700
C722        C  0.49943157  0.96005034  0.04205706     0.88300
Mg723      Mg  0.50663728  0.96012227  0.95231290     1.58100
O724        O  0.48679428  0.01293606  0.02191696    -0.87500
O725        O  0.45717105  0.98639570  0.98825808    -0.74800
C726        C  0.58935314  0.02660850  0.98371269     0.93300
O727        O  0.52086417  0.93489326  0.00091154    -0.74600
O728        O  0.58604681  0.00960248  0.97171698    -0.82100
Mg729      Mg  0.48291662  0.93774663  0.00293991     1.58000
C730        C  0.52370178  0.06763049  0.03733838     0.93300
O731        O  0.44430739  0.93756772  0.00565339    -0.80400
H732        H  0.46562052  0.03363345  0.00701288    -0.05700
C733        C  0.55197253  0.99846518  0.02608786     0.88200
O734        O  0.50828608  0.99794673  0.94880670    -0.74900
O735        O  0.48609350  0.96340708  0.02681522    -0.87700
O736        O  0.51312391  0.05170583  0.04629502    -0.80500
C737        C  0.47129022  0.00292821  0.07873851     0.93400
C738        C  0.42918211  0.94711015  0.01690305     0.93200
Mg739      Mg  0.53552516  0.03561310  0.99643414     1.58000
O740        O  0.57369659  0.03577527  0.99446902    -0.80400
O741        O  0.49758104  0.03808750  0.99794759    -0.74600
O742        O  0.46202423  0.99131877  0.06384090    -0.80500
O743        O  0.48143066  0.90965290  0.97814466    -0.82200
O744        O  0.55783671  0.98116676  0.93536745    -0.80500
C745        C  0.48259792  0.02847105  0.00914670     0.87700
O746        O  0.53300323  0.00974686  0.97263530    -0.87600
O747        O  0.53620336  0.01078827  0.02172977    -0.87700
O748        O  0.56120898  0.98674405  0.01136096    -0.74800
Mg749      Mg  0.46132443  0.98872588  0.02593974     1.58000
O750        O  0.48769029  0.01528743  0.07448650    -0.82200
H751        H  0.46062730  0.97609864  0.95653717    -0.05900
O752        O  0.53211512  0.96002865  0.97710299    -0.87400
H753        H  0.55288971  0.93878883  0.99180867    -0.05700
H754        H  0.51765007  0.03004109  0.95137619    -0.05900
C755        C  0.53601597  0.94431267  0.98975355     0.87600
C756        C  0.46642293  0.97482658  0.97343108     0.88200
C757        C  0.51989080  0.01326671  0.95726174     0.88300
H758        H  0.55754671  0.99704686  0.04304637    -0.05900
O759        O  0.51086325  0.97554710  0.05048944    -0.74900
Mg760      Mg  0.55784869  0.98437453  0.97360125     1.58000
H761        H  0.50195554  0.94330268  0.04790757    -0.05900
C762        C  0.49339303  0.90640703  0.96114414     0.93300
O763        O  0.53122900  0.95826053  0.92447974    -0.82100
C764        C  0.54830398  0.96976696  0.92036751     0.93300
O765        O  0.43338292  0.96401138  0.02867573    -0.82100
Mg766      Mg  0.51200944  0.01349083  0.04679574     1.58200
O767        O  0.50431508  0.92206560  0.95212667    -0.80500
O768        O  0.53649293  0.06436648  0.02094170    -0.82100
C769        C  0.50568668  0.22024343  0.10613782     0.87100
C770        C  0.48468721  0.22116974  0.12030984    -0.53100
C771        C  0.48246289  0.23985687  0.13279352     0.10000
C772        C  0.50208391  0.25602551  0.13022053     0.21000
C773        C  0.50510248  0.24205647  0.09249692    -0.53900
C774        C  0.50309154  0.26070230  0.10518675     0.10100
C775        C  0.52473047  0.22372626  0.12244562    -0.53400
C776        C  0.52313832  0.24234623  0.13493084     0.10700
H777        H  0.47243846  0.20805951  0.12021736     0.15200
H778        H  0.50077100  0.27119956  0.14042382     0.01000
H779        H  0.50617977  0.24314381  0.07465172     0.15500
H780        H  0.53909401  0.21293189  0.12309344     0.15300
O781        O  0.47384778  0.49914773  0.98102278    -0.87700
C782        C  0.50779859  0.44224432  0.99301903     0.88300
Mg783      Mg  0.48648397  0.52538916  0.96086242     1.58100
O784        O  0.50561408  0.47800623  0.03824879    -0.87500
O785        O  0.46178974  0.49390541  0.01493891    -0.74800
C786        C  0.58874639  0.53825763  0.99773105     0.93300
O787        O  0.50838455  0.47392769  0.94999437    -0.74600
O788        O  0.57675673  0.54199851  0.98082161    -0.82100
Mg789      Mg  0.47554774  0.46653195  0.96748587     1.58000
C790        C  0.56023441  0.49295488  0.07486056     0.93300
O791        O  0.44162465  0.45750180  0.98207661    -0.80400
H792        H  0.48795593  0.49559146  0.05986869    -0.05700
C793        C  0.56074734  0.48158065  0.00027466     0.88200
O794        O  0.49742493  0.54406136  0.99212014    -0.74900
O795        O  0.49271130  0.45564890  0.99627699    -0.87700
O796        O  0.54931023  0.47610575  0.06841698    -0.80500
C797        C  0.50592285  0.41961358  0.05203343     0.93400
C798        C  0.43327346  0.44826407  0.99912637     0.93200
Mg799      Mg  0.54726405  0.51953569  0.02999034     1.58000
O800        O  0.58107189  0.52878640  0.01498895    -0.80400
O801        O  0.51456366  0.51188088  0.04760229    -0.74600
O802        O  0.48951588  0.42742769  0.04115063    -0.80500
O803        O  0.45860768  0.47687404  0.93604194    -0.82200
O804        O  0.53281908  0.55911386  0.95606509    -0.80500
C805        C  0.50225433  0.49492503  0.04920734     0.87700
O806        O  0.52979240  0.53039678  0.00108590    -0.87600
O807        O  0.54904276  0.48698534  0.01615495    -0.87700
O808        O  0.56095981  0.49254549  0.98222930    -0.74800
Mg809      Mg  0.47676157  0.46102751  0.02734270     1.58000
O810        O  0.52326015  0.43106063  0.05540228    -0.82200
H811        H  0.45253054  0.51978677  0.99548751    -0.05900
O812        O  0.51713510  0.50797323  0.95887754    -0.87400
H813        H  0.53506150  0.49009874  0.93771680    -0.05700
H814        H  0.51590868  0.55525001  0.01779521    -0.05900
C815        C  0.52065826  0.49089204  0.94822775     0.87600
C816        C  0.46218702  0.50478337  0.99685101     0.88200
C817        C  0.51467507  0.54381372  0.00415164     0.88300
H818        H  0.57061412  0.46670806  0.00155184    -0.05900
O819        O  0.52525910  0.44208153  0.00472176    -0.74900
Mg820      Mg  0.54558591  0.52529103  0.96988009     1.58000
H821        H  0.50640252  0.43083220  0.97937068    -0.05900
C822        C  0.46257350  0.49256424  0.92256587     0.93300
O823        O  0.49952273  0.55451231  0.94114192    -0.82100
C824        C  0.51646137  0.56645220  0.94480486     0.93300
O825        O  0.44478358  0.44453688  0.01641862    -0.82100
Mg826      Mg  0.53635673  0.46048614  0.03596975     1.58200
O827        O  0.47379491  0.50946983  0.92833448    -0.80500
O828        O  0.56430088  0.50911839  0.06189403    -0.82100
O829        O  0.01644661  0.52727086  0.47466114    -0.87700
C830        C  0.02468626  0.46253608  0.49180584     0.88300
Mg831      Mg  0.01666367  0.55367657  0.49842087     1.58100
O832        O  0.97004969  0.47731959  0.47915671    -0.87500
O833        O  0.99367498  0.51389602  0.44986200    -0.74800
C834        C  0.95240694  0.51699431  0.58074922     0.93300
O835        O  0.04489033  0.50702279  0.51404780    -0.74600
O836        O  0.96757338  0.53124818  0.57739229    -0.82100
Mg837      Mg  0.04314464  0.50382086  0.47607154     1.58000
C838        C  0.91801918  0.45738324  0.51775137     0.93300
O839        O  0.04529950  0.49920047  0.43787743    -0.80400
H840        H  0.94785294  0.48961125  0.45785266    -0.05700
C841        C  0.98554312  0.47689032  0.54482317     0.88200
O842        O  0.97866674  0.55351479  0.49955307    -0.74900
O843        O  0.01963503  0.47751209  0.47869661    -0.87700
O844        O  0.93442890  0.44928577  0.50732294    -0.80500
C845        C  0.98355900  0.42175101  0.46309322     0.93400
C846        C  0.03671802  0.48767760  0.42238330     0.93200
Mg847      Mg  0.94589396  0.50204219  0.52738562     1.58000
O848        O  0.94526508  0.50456038  0.56533850    -0.80400
O849        O  0.94325520  0.49938204  0.48958210    -0.74600
O850        O  0.99329138  0.43763353  0.45304401    -0.80500
O851        O  0.06887765  0.53115918  0.47427488    -0.82200
O852        O  0.99313623  0.56966384  0.54907592    -0.80500
C853        C  0.95343662  0.48849014  0.47482716     0.87700
O854        O  0.96910072  0.52860288  0.52429001    -0.87600
O855        O  0.97302046  0.47924420  0.52875001    -0.87700
O856        O  0.99501997  0.49325858  0.55396881    -0.74800
Mg857      Mg  0.99428795  0.47606511  0.45347892     1.58000
O858        O  0.97319221  0.42465425  0.48113155    -0.82200
H859        H  0.00072968  0.54655234  0.45274447    -0.05900
O860        O  0.01863870  0.52969934  0.52473825    -0.87400
H861        H  0.04042120  0.51645676  0.54591007    -0.05700
H862        H  0.94693607  0.54751763  0.50850662    -0.05900
C863        C  0.03491198  0.51796858  0.52893796     0.87600
C864        C  0.00381453  0.52995784  0.45876156     0.88200
C865        C  0.96416159  0.54345490  0.51098739     0.88300
H866        H  0.98896763  0.46038889  0.55091528    -0.05900
O867        O  0.01035591  0.45274210  0.50364851    -0.74900
Mg868      Mg  0.99358226  0.53116404  0.54984379     1.58000
H869        H  0.04191318  0.45825058  0.49387076    -0.05900
C870        C  0.07102335  0.54882575  0.48549645     0.93300
O871        O  0.01516091  0.58267181  0.52255878    -0.82100
C872        C  0.00303070  0.58575408  0.53950398     0.93300
O873        O  0.01935891  0.47614156  0.42534783    -0.82100
Mg874      Mg  0.97246746  0.45296898  0.50523203     1.58200
O875        O  0.05491955  0.55706570  0.49639004    -0.80500
O876        O  0.91998002  0.47486553  0.52926322    -0.82100
O877        O  0.98502654  0.47601812  0.97829798    -0.87700
C878        C  0.05094895  0.48919858  0.97702459     0.88300
Mg879      Mg  0.96035465  0.50107516  0.97554112     1.58100
O880        O  0.02972086  0.47632909  0.02940774    -0.87500
O881        O  0.99463825  0.44975284  0.00155018    -0.74800
C882        C  0.99519985  0.58101881  0.04239596     0.93300
O883        O  0.01011133  0.51401657  0.95066500    -0.74600
O884        O  0.98412699  0.57804134  0.02472199    -0.82100
Mg885      Mg  0.01055439  0.47619564  0.95354468     1.58000
C886        C  0.04562896  0.51179328  0.08471767     0.93300
O887        O  0.01193331  0.43829411  0.95255058    -0.80400
H888        H  0.01296368  0.45594124  0.04938068    -0.05700
C889        C  0.03688451  0.54115646  0.01459462     0.88200
O890        O  0.95675401  0.50283032  0.01323483    -0.74900
O891        O  0.03446511  0.47742771  0.97990297    -0.87700
O892        O  0.05481075  0.50089038  0.06922177    -0.80500
C893        C  0.08552692  0.45697150  0.02067751     0.93400
C894        C  0.02221168  0.42197646  0.96119106     0.93200
Mg895      Mg  0.00585544  0.52647047  0.05136610     1.58000
O896        O  0.00524266  0.56507650  0.05219204    -0.80400
O897        O  0.00543249  0.48840006  0.05343808    -0.74600
O898        O  0.07046433  0.44962790  0.00785876    -0.80500
O899        O  0.98567521  0.47579078  0.92493154    -0.82200
O900        O  0.94618691  0.55422497  0.99489641    -0.80500
C901        C  0.01619388  0.47281585  0.04434795     0.87700
O902        O  0.98216083  0.52577068  0.02493423    -0.87600
O903        O  0.03206094  0.52592341  0.02748533    -0.87700
O904        O  0.02242911  0.55098732  0.00278513    -0.74800
Mg905      Mg  0.03243891  0.45149602  0.00439267     1.58000
O906        O  0.08214122  0.47313303  0.03363146    -0.82200
H907        H  0.96308933  0.45505447  0.99142014    -0.05900
O908        O  0.98616965  0.52545768  0.97522628    -0.87400
H909        H  0.00129971  0.54617243  0.95431123    -0.05700
H910        H  0.95991485  0.51222239  0.04525395    -0.05900
C911        C  0.99894443  0.52926694  0.95972982     0.87600
C912        C  0.98019226  0.46001539  0.99016640     0.88200
C913        C  0.96593110  0.51389675  0.02849816     0.88300
H914        H  0.05403368  0.54578409  0.01279580    -0.05900
O915        O  0.06042680  0.49911670  0.99297133    -0.74900
Mg916      Mg  0.98447970  0.55069826  0.99957768     1.58000
H917        H  0.05718562  0.49150411  0.96042282    -0.05900
C918        C  0.96839135  0.48749089  0.92190103     0.93300
O919        O  0.93350215  0.52698905  0.97360728    -0.82100
C920        C  0.93064038  0.54512710  0.98380609     0.93300
O921        O  0.03385438  0.42420582  0.97861624    -0.82100
Mg922      Mg  0.05598904  0.49993454  0.03093530     1.58200
O923        O  0.95972502  0.49843160  0.93765127    -0.80500
O924        O  0.02977017  0.52520011  0.08077789    -0.82100
C925        C  0.13974241  0.53516068  0.25586339     0.87100
C926        C  0.12673482  0.53018281  0.27690938    -0.53100
C927        C  0.11587775  0.51044046  0.27711541     0.10000
C928        C  0.11833693  0.49754395  0.25516919     0.21000
C929        C  0.15481945  0.51468843  0.25288888    -0.53900
C930        C  0.14358505  0.49492611  0.25232019     0.10100
C931        C  0.12299957  0.53323468  0.23701366    -0.53400
C932        C  0.11156889  0.51381447  0.23650518     0.10700
H933        H  0.12639793  0.54156107  0.29076094     0.15200
H934        H  0.10900893  0.48176607  0.25474799     0.01000
H935        H  0.17261701  0.51541586  0.25163660     0.15500
H936        H  0.12109745  0.54601744  0.22444631     0.15300
O937        O  0.45528349  0.49069226  0.52221487    -0.87700
C938        C  0.49130940  0.54726763  0.51603757     0.88300
Mg939      Mg  0.46822885  0.46148418  0.53760698     1.58100
O940        O  0.48586939  0.51743170  0.46667732    -0.87500
O941        O  0.44219439  0.50075406  0.48978767    -0.74800
C942        C  0.56875907  0.45000269  0.49452520     0.93300
O943        O  0.49196470  0.51001892  0.55490652    -0.74600
O944        O  0.55780913  0.44479312  0.51172940    -0.82100
Mg945      Mg  0.45870727  0.52105120  0.53996943     1.58000
C946        C  0.53918610  0.50613734  0.42628374     0.93300
O947        O  0.42445248  0.53371096  0.52773840    -0.80400
H948        H  0.46662688  0.50371929  0.44358860    -0.05700
C949        C  0.54260580  0.50766615  0.50103738     0.88200
O950        O  0.47701341  0.44729790  0.50351893    -0.74900
O951        O  0.47537706  0.53514794  0.51193849    -0.87700
O952        O  0.52852820  0.52221260  0.43477145    -0.80500
C953        C  0.48717801  0.57660783  0.45856091     0.93400
C954        C  0.41664777  0.54550483  0.51192200     0.93200
Mg955      Mg  0.52634485  0.47426491  0.46736499     1.58000
O956        O  0.56031578  0.46183583  0.47916817    -0.80400
O957        O  0.49322964  0.48510022  0.45219066    -0.74600
O958        O  0.47116963  0.56863676  0.46977359    -0.80500
O959        O  0.44266374  0.50656478  0.57081070    -0.82200
O960        O  0.51411120  0.42681703  0.53584585    -0.80500
C961        C  0.48140636  0.50241148  0.45358605     0.87700
O962        O  0.50977467  0.46037129  0.49520107    -0.87600
O963        O  0.52989963  0.50459632  0.48527320    -0.87700
O964        O  0.54330699  0.49461329  0.51759251    -0.74800
Mg965      Mg  0.45829898  0.53408977  0.48084786     1.58000
O966        O  0.50417133  0.56506464  0.45409784    -0.82200
H967        H  0.43221586  0.47322668  0.50630735    -0.05900
O968        O  0.49959300  0.47769745  0.54037935    -0.87400
H969        H  0.51875825  0.49161519  0.56341165    -0.05700
H970        H  0.49384384  0.43893557  0.47578753    -0.05900
C971        C  0.50394779  0.49279374  0.55344516     0.87600
C972        C  0.44266209  0.48771991  0.50636973     0.88200
C973        C  0.49380824  0.44832733  0.49096576     0.88300
H974        H  0.55291232  0.52225941  0.50105281    -0.05900
O975        O  0.50806464  0.54821865  0.50342423    -0.74900
Mg976      Mg  0.52728547  0.46117966  0.52606185     1.58000
H977        H  0.49125372  0.55684921  0.53109623    -0.05900
C978        C  0.44710911  0.48889563  0.58155028     0.93300
O979        O  0.48136859  0.42935718  0.55226519    -0.82100
C980        C  0.49820239  0.41808381  0.54654079     0.93300
O981        O  0.42820316  0.55045228  0.49506915    -0.82100
Mg982      Mg  0.51719580  0.53361427  0.46954423     1.58200
O983        O  0.45761223  0.47293078  0.57261323    -0.80500
O984        O  0.54272824  0.48835020  0.43705634    -0.82100
C985        C  0.98565356  0.77873978  0.61162835     0.87100
C986        C  0.00471344  0.77666191  0.62816435    -0.53100
C987        C  0.00582122  0.75685899  0.63890365     0.10000
C988        C  0.98717983  0.74067310  0.63250690     0.21000
C989        C  0.98814847  0.75841802  0.59620206    -0.53900
C990        C  0.98900565  0.73844578  0.60717401     0.10100
C991        C  0.96477870  0.77328400  0.62494225    -0.53400
C992        C  0.96545720  0.75357184  0.63587048     0.10700
H993        H  0.01713201  0.78945386  0.63029037     0.15200
H994        H  0.98766137  0.72472228  0.64167552     0.01000
H995        H  0.98861841  0.75934471  0.57835198     0.15500
H996        H  0.95008059  0.78362319  0.62480613     0.15300
O997        O  0.19446809  0.75640173  0.76272395    -0.87700
C998        C  0.23179748  0.74943490  0.70766672     0.88300
Mg999      Mg  0.20645241  0.77310105  0.79131949     1.58100
O1000       O  0.22772589  0.70076900  0.73913013    -0.87500
O1001       O  0.18295217  0.72295662  0.75466704    -0.74800
C1002       C  0.30767065  0.73338443  0.80770829     0.93300
O1003       O  0.23078453  0.78927799  0.74245335    -0.74600
O1004       O  0.29583393  0.75035803  0.81136656    -0.82100
Mg1005     Mg  0.19815235  0.77322350  0.73149069     1.58000
C1006       C  0.28251287  0.66216628  0.75249062     0.93300
O1007       O  0.16460564  0.76007302  0.71837773    -0.80400
H1008       H  0.20927864  0.67709535  0.75302729    -0.05700
C1009       C  0.28337029  0.73671569  0.74873942     0.88200
O1010       O  0.21613034  0.73984263  0.80740587    -0.74900
O1011       O  0.21568886  0.74512288  0.71949964    -0.87700
O1012       O  0.27213731  0.67011849  0.73579343    -0.80500
C1013       C  0.22998643  0.69292131  0.67999995     0.93400
C1014       C  0.15696744  0.74342153  0.70791658     0.93200
Mg1015     Mg  0.26725942  0.70367359  0.78310108     1.58000
O1016       O  0.30042692  0.71712894  0.79640784    -0.80400
O1017       O  0.23507058  0.68709508  0.77197142    -0.74600
O1018       O  0.21339715  0.70287583  0.68829819    -0.80500
O1019       O  0.18117459  0.80430857  0.74370515    -0.82200
O1020       O  0.25154106  0.77447751  0.82697702    -0.80500
C1021       C  0.22356456  0.68772005  0.75438122     0.87700
O1022       O  0.24931562  0.73164489  0.79538883    -0.87600
O1023       O  0.27108714  0.72070179  0.75208860    -0.87700
O1024       O  0.28299608  0.75375207  0.76098203    -0.74800
Mg1025     Mg  0.19956008  0.71359930  0.72193393     1.58000
O1026       O  0.24710730  0.68841438  0.69147908    -0.82200
H1027       H  0.17195881  0.74050517  0.78096463    -0.05900
O1028       O  0.23803817  0.77598824  0.77551913    -0.87400
H1029       H  0.25697053  0.79893874  0.76104934    -0.05700
H1030       H  0.23339306  0.71277033  0.81743054    -0.05900
C1031       C  0.24242285  0.78863987  0.75997874     0.87600
C1032       C  0.18249723  0.74024500  0.76654932     0.88200
C1033       C  0.23320030  0.72755411  0.80728769     0.88300
H1034       H  0.29421002  0.73652078  0.73454794    -0.05900
O1035       O  0.24908598  0.73748605  0.70767567    -0.74900
Mg1036     Mg  0.26565631  0.76311030  0.79344143     1.58000
H1037       H  0.23145420  0.76425250  0.69757578    -0.05900
C1038       C  0.18473818  0.81540592  0.76122038     0.93300
O1039       O  0.21833969  0.78967984  0.82285650    -0.82100
C1040       C  0.23525031  0.78538811  0.83468774     0.93300
O1041       O  0.16854183  0.72610948  0.70487389    -0.82100
Mg1042     Mg  0.25925722  0.70425061  0.72321989     1.58200
O1043       O  0.19488357  0.80703193  0.77781464    -0.80500
O1044       O  0.28492316  0.67318350  0.77026422    -0.82100
C1045       C  0.46696340  0.73587784  0.85946395     0.87100
C1046       C  0.46887131  0.75656727  0.87369230    -0.53100
C1047       C  0.48849712  0.75901172  0.88439355     0.10000
C1048       C  0.50521438  0.74036818  0.87918388     0.21000
C1049       C  0.48670393  0.73768470  0.84327463    -0.53900
C1050       C  0.50687869  0.73991832  0.85360514     0.10100
C1051       C  0.47321282  0.71653694  0.87473241    -0.53400
C1052       C  0.49309642  0.71874017  0.88504704     0.10700
H1053       H  0.45555335  0.76855795  0.87495234     0.15200
H1054       H  0.52121849  0.74198204  0.88800163     0.01000
H1055       H  0.48513374  0.73739702  0.82544893     0.15500
H1056       H  0.46293969  0.70193643  0.87677166     0.15300
C1057       C  0.36126047  0.74966406  0.83631818    -0.27600
C1058       C  0.37534553  0.73247714  0.82981603     0.06000
C1059       C  0.36689900  0.71506716  0.81712290     0.25600
C1060       C  0.34477213  0.71519422  0.81047599    -0.12100
C1061       C  0.33066908  0.73274343  0.81631435    -0.26000
C1062       C  0.33914669  0.74993281  0.82960521     0.36400
C1063       C  0.39874014  0.73260465  0.83672514     0.06000
F1064       F  0.38003048  0.69782496  0.81138173    -0.19800
H1065       H  0.33878491  0.70164523  0.80046695     0.15900
F1066       F  0.32624729  0.76713342  0.83599855    -0.23500
H1067       H  0.36752938  0.76308260  0.84634978     0.17600
C1068       C  0.41581838  0.73426432  0.82110574     0.25600
C1069       C  0.43794772  0.73478296  0.82800149    -0.12100
C1070       C  0.44337782  0.73367222  0.85066901    -0.26100
C1071       C  0.42593337  0.73175277  0.86615022     0.36600
C1072       C  0.40398167  0.73134002  0.85920530    -0.27700
F1073       F  0.41101206  0.73612050  0.79922437    -0.19800
H1074       H  0.45050237  0.73654271  0.81548876     0.15900
F1075       F  0.43012161  0.73073192  0.88822634    -0.23500
H1076       H  0.39098242  0.73004760  0.87143990     0.17700
C1077       C  0.05081258  0.75914928  0.68235460    -0.27600
C1078       C  0.06773092  0.74691971  0.67216913     0.06000
C1079       C  0.06315578  0.73623085  0.65200683     0.25600
C1080       C  0.04234215  0.73828980  0.64205909    -0.12100
C1081       C  0.02572735  0.75100904  0.65194204    -0.26000
C1082       C  0.03005427  0.76135741  0.67224730     0.36400
C1083       C  0.09029384  0.74604366  0.68206177     0.06000
F1084       F  0.07922945  0.72498334  0.64118582    -0.19800
H1085       H  0.03963395  0.73104095  0.62593569     0.15900
F1086       F  0.01444172  0.77422555  0.68187066    -0.23500
H1087       H  0.05382913  0.76737637  0.69794923     0.17600
C1088       C  0.10128701  0.76549511  0.68854159     0.25600
C1089       C  0.12282287  0.76451234  0.69703845    -0.12100
C1090       C  0.13397533  0.74417890  0.69912784    -0.26100
C1091       C  0.12282632  0.72468816  0.69287150     0.36600
C1092       C  0.10126676  0.72569150  0.68449680    -0.27700
F1093       F  0.09152171  0.78556793  0.68595307    -0.19800
H1094       H  0.13091898  0.77978668  0.70164032     0.15900
F1095       F  0.13255573  0.70455443  0.69511649    -0.23500
H1096       H  0.09306119  0.71045695  0.67995225     0.17700
C1097       C  0.07240110  0.52293303  0.18856067    -0.27600
C1098       C  0.07554830  0.50371257  0.17597213     0.06000
C1099       C  0.08821276  0.48632114  0.18520228     0.25600
C1100       C  0.09862437  0.48890214  0.20587087    -0.12100
C1101       C  0.09655351  0.50879481  0.21762724    -0.26000
C1102       C  0.08252187  0.52538703  0.20916615     0.36400
C1103       C  0.06697761  0.50310645  0.15275302     0.06000
F1104       F  0.09095381  0.46707951  0.17405578    -0.19800
H1105       H  0.10930793  0.47586953  0.21205512     0.15900
F1106       F  0.07933379  0.54450191  0.22042757    -0.23500
H1107       H  0.06292443  0.53667612  0.18197351     0.17600
C1108       C  0.04572643  0.51117129  0.14761304     0.25600
C1109       C  0.03908525  0.51399575  0.12557604    -0.12100
C1110       C  0.05319249  0.50842783  0.10801376    -0.26100
C1111       C  0.07404452  0.49922191  0.11311575     0.36600
C1112       C  0.08086327  0.49680686  0.13522862    -0.27700
F1113       F  0.03131751  0.51642953  0.16394332    -0.19800
H1114       H  0.02272720  0.52050223  0.12226664     0.15900
F1115       F  0.08821666  0.49328149  0.09680789    -0.23500
H1116       H  0.09739568  0.49080325  0.13859978     0.17700
C1117       C  0.00481934  0.64871701  0.54550596    -0.27600
C1118       C  0.99565272  0.65160864  0.56660325     0.06000
C1119       C  0.98835816  0.63290564  0.57839697     0.25600
C1120       C  0.99061936  0.61170390  0.56941150    -0.12100
C1121       C  0.00036508  0.60858800  0.54851475    -0.26000
C1122       C  0.00730520  0.62748158  0.53654605     0.36400
C1123       C  0.99426471  0.67402976  0.57652825     0.06000
F1124       F  0.97884433  0.63518040  0.59857917    -0.19800
H1125       H  0.98490899  0.59765853  0.57900218     0.15900
F1126       F  0.01641679  0.62556011  0.51614493    -0.23500
H1127       H  0.01046090  0.66293833  0.53612497     0.17600
C1128       C  0.00518625  0.67865719  0.59650550     0.25600
C1129       C  0.00351966  0.69960417  0.60610670    -0.12100
C1130       C  0.99100290  0.71649926  0.59603005    -0.26100
C1131       C  0.98005956  0.71184522  0.57594032     0.36600
C1132       C  0.98187248  0.69085514  0.56624911    -0.27700
F1133       F  0.01777066  0.66295959  0.60658998    -0.19800
H1134       H  0.01220504  0.70257398  0.62146251     0.15900
F1135       F  0.96679783  0.72714880  0.56614887    -0.23500
H1136       H  0.97315480  0.68754445  0.55094953     0.17700
C1137       C  0.10262682  0.50242896  0.33795545    -0.27600
C1138       C  0.08175002  0.49230443  0.33754033     0.06000
C1139       C  0.07279785  0.48653414  0.31668244     0.25600
C1140       C  0.08418737  0.49165303  0.29698738    -0.12100
C1141       C  0.10476023  0.50233750  0.29768408    -0.26000
C1142       C  0.11423220  0.50674583  0.31853254     0.36400
C1143       C  0.06957560  0.48879566  0.35893460     0.06000
F1144       F  0.05310564  0.47595262  0.31522297    -0.19800
H1145       H  0.07663842  0.48782099  0.28120449     0.15900
F1146       F  0.13486779  0.51535065  0.32028820    -0.23500
H1147       H  0.10999590  0.50761044  0.35340502     0.17600
C1148       C  0.08105904  0.48316015  0.37859070     0.25600
C1149       C  0.07027394  0.48308623  0.39905454    -0.12100
C1150       C  0.04759768  0.48742796  0.40044490    -0.26100
C1151       C  0.03569557  0.49160889  0.38085268     0.36600
C1152       C  0.04666376  0.49274333  0.36040668    -0.27700
F1153       F  0.10274888  0.47748662  0.37813422    -0.19800
H1154       H  0.07963619  0.47927587  0.41389568     0.15900
F1155       F  0.01365091  0.49563419  0.38160879    -0.23500
H1156       H  0.03726896  0.49746502  0.34587935     0.17700
C1157       C  0.53377895  0.62589394  0.93122379    -0.27600
C1158       C  0.51360364  0.63503211  0.92410808     0.06000
C1159       C  0.49503720  0.62116734  0.92257001     0.25600
C1160       C  0.49642828  0.59893024  0.92872249    -0.12100
C1161       C  0.51633500  0.58977666  0.93660232    -0.26000
C1162       C  0.53517241  0.60351288  0.93756767     0.36400
C1163       C  0.51171462  0.65874743  0.91762537     0.06000
F1164       F  0.47548907  0.62905991  0.91478194    -0.19800
H1165       H  0.48163004  0.58894505  0.92762951     0.15900
F1166       F  0.55488925  0.59543549  0.94466988    -0.23500
H1167       H  0.54836643  0.63619916  0.93222213     0.17600
C1168       C  0.49454222  0.67190052  0.92614099     0.25600
C1169       C  0.48967147  0.69242632  0.91656901    -0.12100
C1170       C  0.50213654  0.70046822  0.89873950    -0.26100
C1171       C  0.52066274  0.68842074  0.89164761     0.36600
C1172       C  0.52537758  0.66764593  0.90103540    -0.27700
F1173       F  0.48175171  0.66437712  0.94299273    -0.19800
H1174       H  0.47539714  0.70156628  0.92229689     0.15900
F1175       F  0.53288832  0.69572776  0.87429540    -0.23500
H1176       H  0.53875418  0.65787402  0.89430532     0.17700
C1177       C  0.48637670  0.32032409  0.09457828    -0.27600
C1178       C  0.50347884  0.32779118  0.08079277     0.06000
C1179       C  0.52010169  0.31283463  0.07444182     0.25600
C1180       C  0.51947765  0.29079366  0.08174119    -0.12100
C1181       C  0.50263215  0.28349846  0.09594752    -0.26000
C1182       C  0.48604861  0.29845595  0.10229466     0.36400
C1183       C  0.50403267  0.35127174  0.07350016     0.06000
F1184       F  0.53685696  0.31953012  0.06111556    -0.19800
H1185       H  0.53252448  0.27956703  0.07685810     0.15900
F1186       F  0.46939692  0.29186308  0.11579402    -0.23500
H1187       H  0.47347839  0.33160568  0.09972094     0.17600
C1188       C  0.48624255  0.36061554  0.06175506     0.25600
C1189       C  0.48678963  0.38287161  0.05522381    -0.12100
C1190       C  0.50505755  0.39634486  0.06031423    -0.26100
C1191       C  0.52281758  0.38689107  0.07227771     0.36600
C1192       C  0.52225407  0.36460025  0.07868694    -0.27700
F1193       F  0.46857557  0.34803682  0.05608581    -0.19800
H1194       H  0.47296332  0.38945687  0.04588024     0.15900
F1195       F  0.54084473  0.39904259  0.07774241    -0.23500
H1196       H  0.53603355  0.35773980  0.08791460     0.17700
C1197       C  0.48940123  0.84405256  0.95384198    -0.27600
C1198       C  0.49700373  0.84137122  0.93205592     0.06000
C1199       C  0.50369406  0.86023772  0.92006885     0.25600
C1200       C  0.50274874  0.88119140  0.92975533    -0.12100
C1201       C  0.49471214  0.88392641  0.95139933    -0.26000
C1202       C  0.48814183  0.86502738  0.96341985     0.36400
C1203       C  0.49622103  0.81915753  0.92155617     0.06000
F1204       F  0.51012009  0.85865727  0.89863045    -0.19800
H1205       H  0.50780329  0.89540086  0.92002580     0.15900
F1206       F  0.48064092  0.86668853  0.98449614    -0.23500
H1207       H  0.48424688  0.82981247  0.96347271     0.17600
C1208       C  0.51388519  0.81088263  0.90892214     0.25600
C1209       C  0.51184637  0.79069963  0.89775534    -0.12100
C1210       C  0.49228225  0.77833834  0.89912482    -0.26100
C1211       C  0.47522121  0.78596490  0.91296111     0.36600
C1212       C  0.47713999  0.80617863  0.92384273    -0.27700
F1213       F  0.53313103  0.82225953  0.90725103    -0.19800
H1214       H  0.52514911  0.78536696  0.88747174     0.15900
F1215       F  0.45642297  0.77404772  0.91573381    -0.23500
H1216       H  0.46334626  0.81198919  0.93359949     0.17700
C1217       C  0.50071631  0.11699736  0.06889877    -0.27600
C1218       C  0.51547638  0.13392588  0.06304197     0.06000
C1219       C  0.53285380  0.12902304  0.04842705     0.25600
C1220       C  0.53541694  0.10754020  0.04007038    -0.12100
C1221       C  0.52080310  0.09046405  0.04617830    -0.26000
C1222       C  0.50321129  0.09558071  0.06057686     0.36400
C1223       C  0.51314127  0.15617384  0.07328853     0.06000
F1224       F  0.54784214  0.14476631  0.04287480    -0.19800
H1225       H  0.54909383  0.10420109  0.02905783     0.15900
F1226       F  0.48816452  0.08001484  0.06649268    -0.23500
H1227       H  0.48712759  0.12040917  0.08001126     0.17600
C1228       C  0.51181679  0.17563647  0.06047746     0.25600
C1229       C  0.50928633  0.19633617  0.07067986    -0.12100
C1230       C  0.50802685  0.19810812  0.09394569    -0.26100
C1231       C  0.50924678  0.17837675  0.10656189     0.36600
C1232       C  0.51173232  0.15784372  0.09635971    -0.27700
F1233       F  0.51235622  0.17460282  0.03805158    -0.19800
H1234       H  0.50823679  0.21069961  0.06009064     0.15900
F1235       F  0.50819920  0.17894740  0.12899628    -0.23500
H1236       H  0.51274394  0.14311150  0.10660017     0.17700
C1237       C  0.35981164  0.06262141  0.46979132    -0.27600
C1238       C  0.35052030  0.07337599  0.48806401     0.06000
C1239       C  0.36373845  0.07687856  0.50690158     0.25600
C1240       C  0.38566259  0.06942121  0.50752149    -0.12100
C1241       C  0.39498051  0.05814761  0.48944584    -0.26000
C1242       C  0.38171393  0.05495074  0.47043623     0.36400
C1243       C  0.32700646  0.08064589  0.48774585     0.06000
F1244       F  0.35548504  0.08774092  0.52468143    -0.19800
H1245       H  0.39528288  0.07231641  0.52235392     0.15900
F1246       F  0.38967659  0.04412004  0.45252742    -0.23500
H1247       H  0.34990801  0.05974164  0.45513845     0.17600
C1248       C  0.31932778  0.09644768  0.47232833     0.25600
C1249       C  0.29804979  0.10551876  0.47441542    -0.12100
C1250       C  0.28410615  0.09877524  0.49171400    -0.26100
C1251       C  0.29117689  0.08172172  0.50597685     0.36600
C1252       C  0.31243473  0.07283827  0.50404481    -0.27700
F1253       F  0.33302900  0.10446599  0.45646650    -0.19800
H1254       H  0.29320761  0.11912101  0.46371541     0.15900
F1255       F  0.27814943  0.07505995  0.52300731    -0.23500
H1256       H  0.31790644  0.06051094  0.51592752     0.17700
C1257       C  0.97403456  0.87311292  0.55571810    -0.27600
C1258       C  0.98278679  0.86943126  0.57692887     0.06000
C1259       C  0.98988248  0.88773528  0.58941993     0.25600
C1260       C  0.98761103  0.90924890  0.58099200    -0.12100
C1261       C  0.97837000  0.91294977  0.55993190    -0.26000
C1262       C  0.97188309  0.89453536  0.54723345     0.36400
C1263       C  0.98416152  0.84646610  0.58575849     0.06000
F1264       F  0.99950541  0.88483486  0.60953687    -0.19800
H1265       H  0.99312667  0.92302369  0.59097048     0.15900
F1266       F  0.96386726  0.89708250  0.52637490    -0.23500
H1267       H  0.96861071  0.85931479  0.54571752     0.17600
C1268       C  0.97624885  0.84125396  0.60694897     0.25600
C1269       C  0.97713855  0.81952740  0.61480094    -0.12100
C1270       C  0.98495956  0.80205413  0.60149817    -0.26100
C1271       C  0.99352053  0.80751684  0.58040625     0.36600
C1272       C  0.99286563  0.82941212  0.57267741    -0.27700
F1273       F  0.96699251  0.85701722  0.61990020    -0.19800
H1274       H  0.97141195  0.81634017  0.63147471     0.15900
F1275       F  0.00362779  0.79231297  0.56752559    -0.23500
H1276       H  0.99954289  0.83313899  0.55646625     0.17700
C1277       C  0.17861862  0.07801395  0.52291624    -0.27600
C1278       C  0.16372658  0.08149742  0.50535881     0.06000
C1279       C  0.17075401  0.09416659  0.48701360     0.25600
C1280       C  0.19184059  0.10381780  0.48677158    -0.12100
C1281       C  0.20618800  0.10124571  0.50487055    -0.26000
C1282       C  0.19957586  0.08775660  0.52273209     0.36400
C1283       C  0.14056285  0.07318394  0.50713434     0.06000
F1284       F  0.15708959  0.09755953  0.46948865    -0.19800
H1285       H  0.19652651  0.11424107  0.47292627     0.15900
F1286       F  0.21318846  0.08448100  0.54033666    -0.23500
H1287       H  0.17367919  0.06850385  0.53730934     0.17600
C1288       C  0.13603296  0.05143112  0.51424322     0.25600
C1289       C  0.11420325  0.04453189  0.51771432    -0.12100
C1290       C  0.09633674  0.05900575  0.51391612    -0.26100
C1291       C  0.10085317  0.08053914  0.50615523     0.36600
C1292       C  0.12269749  0.08753237  0.50301474    -0.27700
F1293       F  0.15269589  0.03673299  0.51759683    -0.19800
H1294       H  0.11127224  0.02770628  0.52320639     0.15900
F1295       F  0.08422454  0.09512422  0.50223853    -0.23500
H1296       H  0.12566304  0.10445861  0.49788419     0.17700
C1297       C  0.43177096  0.99001345  0.18109545    -0.27600
C1298       C  0.43247224  0.00669458  0.16500683     0.06000
C1299       C  0.41997055  0.02596742  0.16780786     0.25600
C1300       C  0.40643771  0.02833489  0.18621519    -0.12100
C1301       C  0.40511634  0.01150210  0.20238543    -0.26000
C1302       C  0.41850106  0.99247462  0.19979008     0.36400
C1303       C  0.44487585  0.00357259  0.14442336     0.06000
F1304       F  0.42018456  0.04221636  0.15220681    -0.19800
H1305       H  0.39714025  0.04345451  0.18722203     0.15900
F1306       F  0.41838660  0.97599361  0.21514969    -0.23500
H1307       H  0.44139824  0.97504211  0.17907815     0.17600
C1308       C  0.46132524  0.01866708  0.13825053     0.25600
C1309       C  0.47022990  0.01797256  0.11703270    -0.12100
C1310       C  0.46276857  0.00228360  0.10161122    -0.26100
C1311       C  0.44711369  0.98637867  0.10833122     0.36600
C1312       C  0.43831516  0.98705903  0.12963824    -0.27700
F1313       F  0.46822995  0.03449562  0.15254188    -0.19800
H1314       H  0.48249629  0.03019909  0.11249583     0.15900
F1315       F  0.43993524  0.97046395  0.09428227    -0.23500
H1316       H  0.42560301  0.97532617  0.13427525     0.17700
C1317       C  0.42617560  0.02213610  0.31277377    -0.27600
C1318       C  0.41732911  0.00673221  0.32778551     0.06000
C1319       C  0.39888869  0.99411349  0.32149409     0.25600
C1320       C  0.38974916  0.99660939  0.30039331    -0.12100
C1321       C  0.39887737  0.01163720  0.28522483    -0.26000
C1322       C  0.41710635  0.02455019  0.29160969     0.36400
C1323       C  0.42663360  0.00469506  0.35035268     0.06000
F1324       F  0.38940366  0.97974663  0.33594223    -0.19800
H1325       H  0.37573568  0.98649572  0.29577992     0.15900
F1326       F  0.42583952  0.03980303  0.27758118    -0.23500
H1327       H  0.44017909  0.03223878  0.31745390     0.17600
C1328       C  0.43315971  0.98406223  0.35903091     0.25600
C1329       C  0.44044068  0.98227374  0.38097666    -0.12100
C1330       C  0.44130990  0.00102041  0.39462029    -0.26100
C1331       C  0.43559767  0.02183082  0.38548356     0.36600
C1332       C  0.42836502  0.02354259  0.36360766    -0.27700
F1333       F  0.43260228  0.96568358  0.34623067    -0.19800
H1334       H  0.44508882  0.96615600  0.38737173     0.15900
F1335       F  0.43699847  0.04064775  0.39758113    -0.23500
H1336       H  0.42360672  0.03960882  0.35713305     0.17700
C1337       C  0.14259479  0.43640044  0.03739492    -0.27600
C1338       C  0.15073391  0.42889803  0.01701162     0.06000
C1339       C  0.13722592  0.43053764  0.99810760     0.25600
C1340       C  0.11593393  0.43924503  0.99961474    -0.12100
C1341       C  0.10775460  0.44684919  0.01989797    -0.26000
C1342       C  0.12126037  0.44534811  0.03887216     0.36400
C1343       C  0.17288545  0.41855299  0.01532487     0.06000
F1344       F  0.14483683  0.42410992  0.97802404    -0.19800
H1345       H  0.10597568  0.44051317  0.98474261     0.15900
F1346       F  0.11362341  0.45193787  0.05889403    -0.23500
H1347       H  0.15262608  0.43498662  0.05220050     0.17600
C1348       C  0.19214098  0.42966023  0.02197509     0.25600
C1349       C  0.21295493  0.42012403  0.01833107    -0.12100
C1350       C  0.21500349  0.39942490  0.00781380    -0.26100
C1351       C  0.19545208  0.38827311  0.00165993     0.36600
C1352       C  0.17480973  0.39767858  0.00560260    -0.27700
F1353       F  0.19088674  0.45006464  0.03117137    -0.19800
H1354       H  0.22745281  0.42907886  0.02370404     0.15900
F1355       F  0.19586557  0.36876226  0.99079050    -0.23500
H1356       H  0.16014637  0.38879460  0.00046983     0.17700
C1357       C  0.32667629  0.42438440  0.01279322    -0.27600
C1358       C  0.34120422  0.42192085  0.99492713     0.06000
C1359       C  0.33386536  0.41070173  0.97600657     0.25600
C1360       C  0.31276764  0.40137978  0.97534989    -0.12100
C1361       C  0.29844165  0.40264408  0.99372338    -0.26000
C1362       C  0.30550699  0.41509940  0.01216802     0.36400
C1363       C  0.36438145  0.42978537  0.99657929     0.06000
F1364       F  0.34761681  0.40745838  0.95859917    -0.19800
H1365       H  0.30853591  0.39249703  0.96056929     0.15900
F1366       F  0.29238253  0.41716107  0.03023180    -0.23500
H1367       H  0.33193582  0.43311809  0.02749650     0.17600
C1368       C  0.37376660  0.44295758  0.97984793     0.25600
C1369       C  0.39607386  0.44885180  0.98084883    -0.12100
C1370       C  0.40952841  0.44190985  0.99862255    -0.26100
C1371       C  0.39989682  0.42922693  0.01571145     0.36600
C1372       C  0.37757754  0.42326415  0.01461792    -0.27700
F1373       F  0.36129756  0.45034082  0.96262769    -0.19800
H1374       H  0.40278983  0.45895347  0.96763387     0.15900
F1375       F  0.41203433  0.42220232  0.03330828    -0.23500
H1376       H  0.37068940  0.41305778  0.02766839     0.17700
C1377       C  0.18811358  0.39517066  0.26224416    -0.27600
C1378       C  0.18519043  0.40842513  0.24325051     0.06000
C1379       C  0.19261094  0.40021205  0.22273797     0.25600
C1380       C  0.20261976  0.37931392  0.22144892    -0.12100
C1381       C  0.20487908  0.36593307  0.24038847    -0.26000
C1382       C  0.19747305  0.37407115  0.26082981     0.36400
C1383       C  0.17436411  0.43058854  0.24512798     0.06000
F1384       F  0.18955439  0.41198861  0.20379451    -0.19800
H1385       H  0.20806055  0.37331265  0.20550116     0.15900
F1386       F  0.19978007  0.36184336  0.27960349    -0.23500
H1387       H  0.18325099  0.40119695  0.27835697     0.17600
C1388       C  0.15558279  0.43352973  0.25855128     0.25600
C1389       C  0.14600416  0.45444210  0.26091371    -0.12100
C1390       C  0.15450726  0.47293451  0.24966832    -0.26100
C1391       C  0.17298234  0.46997971  0.23581687     0.36600
C1392       C  0.18289514  0.44910490  0.23382942    -0.27700
F1393       F  0.14610760  0.41610473  0.26911410    -0.19800
H1394       H  0.13192078  0.45612221  0.27178213     0.15900
F1395       F  0.18115565  0.48703802  0.22367481    -0.23500
H1396       H  0.19741107  0.44750271  0.22353239     0.17700
C1397       C  0.24362896  0.15256874  0.42000126    -0.27600
C1398       C  0.23779208  0.17501148  0.41813844     0.06000
C1399       C  0.23288432  0.18663055  0.43764864     0.25600
C1400       C  0.23401986  0.17606349  0.45831789    -0.12100
C1401       C  0.24089487  0.15381559  0.46039229    -0.26000
C1402       C  0.24562518  0.14219334  0.44070763     0.36400
C1403       C  0.23769055  0.18633186  0.39602382     0.06000
F1404       F  0.22787610  0.20851816  0.43693814    -0.19800
H1405       H  0.22970099  0.18564680  0.47273010     0.15900
F1406       F  0.25328583  0.12114113  0.44108632    -0.23500
H1407       H  0.24712011  0.14300445  0.40531597     0.17600
C1408       C  0.25486309  0.18280053  0.38071055     0.25600
C1409       C  0.25500047  0.19391116  0.36032901    -0.12100
C1410       C  0.23826497  0.20907930  0.35468615    -0.26100
C1411       C  0.22094604  0.21249595  0.36986033     0.36600
C1412       C  0.22064141  0.20112099  0.39016196    -0.27700
F1413       F  0.27201982  0.16916903  0.38566611    -0.19800
H1414       H  0.26856505  0.19090960  0.34907595     0.15900
F1415       F  0.20404889  0.22648696  0.36498081    -0.23500
H1416       H  0.20690642  0.20380560  0.40127537     0.17700
C1417       C  0.39866215  0.24150190  0.20310102    -0.27600
C1418       C  0.40173934  0.25342073  0.18333450     0.06000
C1419       C  0.38383132  0.26551995  0.17462693     0.25600
C1420       C  0.36311840  0.26493742  0.18495608    -0.12100
C1421       C  0.35961975  0.25222610  0.20423920    -0.26000
C1422       C  0.37789824  0.24083736  0.21346933     0.36400
C1423       C  0.42269260  0.25123729  0.17053452     0.06000
F1424       F  0.38632785  0.27773948  0.15589133    -0.19800
H1425       H  0.34966872  0.27420342  0.17753645     0.15900
F1426       F  0.37570812  0.22858759  0.23221773    -0.23500
H1427       H  0.41216443  0.23195459  0.21006489     0.17600
C1428       C  0.44350126  0.25650155  0.17960883     0.25600
C1429       C  0.46291179  0.25337121  0.16716223    -0.12100
C1430       C  0.46191731  0.24455410  0.14567813    -0.26100
C1431       C  0.44100133  0.23979950  0.13656497     0.36600
C1432       C  0.42176130  0.24310684  0.14885605    -0.27700
F1433       F  0.44503118  0.26483563  0.20036567    -0.19800
H1434       H  0.47874821  0.25732373  0.17450329     0.15900
F1435       F  0.43902593  0.23224433  0.11554140    -0.23500
H1436       H  0.40598393  0.23895589  0.14148246     0.17700
C1437       C  0.30725388  0.12300288  0.27804519    -0.27600
C1438       C  0.32289960  0.11845632  0.26160129     0.06000
C1439       C  0.33089006  0.13597047  0.24846787     0.25600
C1440       C  0.32299196  0.15750067  0.25145189    -0.12100
C1441       C  0.30681410  0.16207287  0.26746306    -0.26000
C1442       C  0.29916936  0.14452268  0.28094306     0.36400
C1443       C  0.33034374  0.09541342  0.25757698     0.06000
F1444       F  0.34641108  0.13225616  0.23273381    -0.19800
H1445       H  0.32925762  0.17053596  0.24083517     0.15900
F1446       F  0.28372156  0.14799547  0.29679759    -0.23500
H1447       H  0.30085835  0.10973712  0.28829581     0.17600
C1448       C  0.33981248  0.08244595  0.27453411     0.25600
C1449       C  0.34857358  0.06150600  0.26979716    -0.12100
C1450       C  0.34790398  0.05314849  0.24815025    -0.26100
C1451       C  0.33700680  0.06555205  0.23158313     0.36600
C1452       C  0.32850560  0.08649187  0.23627392    -0.27700
F1453       F  0.34176786  0.09054290  0.29535022    -0.19800
H1454       H  0.35699003  0.05240606  0.28280055     0.15900
F1455       F  0.33495243  0.05764882  0.21068835    -0.23500
H1456       H  0.32073470  0.09595985  0.22311939     0.17700
C1457       C  0.27527643  0.32415867  0.06731319    -0.27600
C1458       C  0.25793859  0.32897531  0.08194757     0.06000
C1459       C  0.23984824  0.34148978  0.07420101     0.25600
C1460       C  0.23990137  0.35019289  0.05269405    -0.12100
C1461       C  0.25802102  0.34667112  0.03872352    -0.26000
C1462       C  0.27531628  0.33284838  0.04586948     0.36400
C1463       C  0.25972561  0.32218392  0.10553224     0.06000
F1464       F  0.22244620  0.34582645  0.08762164    -0.19800
H1465       H  0.22642816  0.36082041  0.04745542     0.15900
F1466       F  0.29269064  0.32851786  0.03239177    -0.23500
H1467       H  0.28937961  0.31455676  0.07283396     0.17600
C1468       C  0.26593556  0.30051058  0.11133257     0.25600
C1469       C  0.26934410  0.29478066  0.13349618    -0.12100
C1470       C  0.26636787  0.31039449  0.15041649    -0.26100
C1471       C  0.25975314  0.33199627  0.14467911     0.36600
C1472       C  0.25663013  0.33782187  0.12241712    -0.27700
F1473       F  0.26841613  0.28476416  0.09558626    -0.19800
H1474       H  0.27399526  0.27790720  0.13745991     0.15900
F1475       F  0.25694867  0.34763931  0.16046110    -0.23500
H1476       H  0.25227159  0.35473970  0.11832332     0.17700
C1477       C  0.98474431  0.37458791  0.42185224    -0.27600
C1478       C  0.98371847  0.35603821  0.43589873     0.06000
C1479       C  0.98286430  0.35920445  0.45888961     0.25600
C1480       C  0.98275852  0.38061399  0.46759345    -0.12100
C1481       C  0.98402235  0.39922355  0.45356809    -0.26000
C1482       C  0.98506526  0.39599569  0.43055007     0.36400
C1483       C  0.98506951  0.33354032  0.42639962     0.06000
F1484       F  0.98195345  0.34159450  0.47288716    -0.19800
H1485       H  0.98195709  0.38264500  0.48537408     0.15900
F1486       F  0.98590479  0.41350164  0.41642142    -0.23500
H1487       H  0.98570556  0.37244667  0.40409172     0.17600
C1488       C  0.97001986  0.32651314  0.41010135     0.25600
C1489       C  0.97349333  0.30655009  0.39892837    -0.12100
C1490       C  0.99219115  0.29363501  0.40363041    -0.26100
C1491       C  0.00651292  0.30005100  0.42076947     0.36600
C1492       C  0.00284508  0.31975494  0.43216998    -0.27700
F1493       F  0.95252286  0.33940575  0.40439216    -0.19800
H1494       H  0.96251421  0.30200403  0.38552051     0.15900
F1495       F  0.02483533  0.28792438  0.42547715    -0.23500
H1496       H  0.01466750  0.32493083  0.44458613     0.17700
C1497       C  0.00090337  0.17591567  0.39834804    -0.27600
C1498       C  0.99629659  0.17677097  0.42105189     0.06000
C1499       C  0.99206047  0.19737858  0.43090995     0.25600
C1500       C  0.99298914  0.21686581  0.41819479    -0.12100
C1501       C  0.99862244  0.21600107  0.39568565    -0.26000
C1502       C  0.00220236  0.19530230  0.38578160     0.36400
C1503       C  0.99710167  0.15604299  0.43419845     0.06000
F1504       F  0.98723817  0.19862364  0.45279031    -0.19800
H1505       H  0.99021144  0.23267332  0.42609004     0.15900
F1506       F  0.00721243  0.19385272  0.36394952    -0.23500
H1507       H  0.00418383  0.16018703  0.39048027     0.17600
C1508       C  0.98291833  0.13843304  0.42915357     0.25600
C1509       C  0.98562027  0.11790314  0.43956893    -0.12100
C1510       C  0.00261698  0.11439677  0.45517987    -0.26100
C1511       C  0.01643302  0.13234754  0.46067534     0.36600
C1512       C  0.01361033  0.15295179  0.45026440    -0.27700
F1513       F  0.96656442  0.14106340  0.41395412    -0.19800
H1514       H  0.97445479  0.10464172  0.43516865     0.15900
F1515       F  0.03304733  0.12993156  0.47560733    -0.23500
H1516       H  0.02484438  0.16631933  0.45416527     0.17700
C1517       C  0.12580937  0.25763841  0.32467290    -0.27600
C1518       C  0.11019308  0.27418913  0.31997142     0.06000
C1519       C  0.11655394  0.29256954  0.30716152     0.25600
C1520       C  0.13813990  0.29409848  0.29901331    -0.12100
C1521       C  0.15380906  0.27747331  0.30368993    -0.26000
C1522       C  0.14737232  0.25919831  0.31670528     0.36400
C1523       C  0.08764825  0.27221430  0.32925072     0.06000
F1524       F  0.10212936  0.30931440  0.30306630    -0.19800
H1525       H  0.14265705  0.30843668  0.28920785     0.15900
F1526       F  0.16169812  0.24251195  0.32135345    -0.23500
H1527       H  0.12120615  0.24330890  0.33446277     0.17600
C1528       C  0.06873013  0.27340167  0.31575919     0.25600
C1529       C  0.04771260  0.27002783  0.32484873    -0.12100
C1530       C  0.04515128  0.26546137  0.34762347    -0.26100
C1531       C  0.06429224  0.26484038  0.36103256     0.36600
C1532       C  0.08515172  0.26804781  0.35191057    -0.27700
F1533       F  0.07058328  0.27714515  0.29367350    -0.19800
H1534       H  0.03374841  0.27107772  0.31380723     0.15900
F1535       F  0.06282849  0.26108869  0.38315939    -0.23500
H1536       H  0.09949735  0.26726926  0.36263966     0.17700
C1537       C  0.92514628  0.02091421  0.19069721    -0.27600
C1538       C  0.91769695  0.00684170  0.17383749     0.06000
C1539       C  0.89998287  0.99247905  0.17811150     0.25600
C1540       C  0.88977196  0.99236271  0.19880769    -0.12100
C1541       C  0.89740896  0.00606676  0.21584722    -0.26000
C1542       C  0.91522024  0.02045121  0.21162445     0.36400
C1543       C  0.92793195  0.00742526  0.15160586     0.06000
F1544       F  0.89217740  0.97895759  0.16203509    -0.19800
H1545       H  0.87588232  0.98144640  0.20149821     0.15900
F1546       F  0.92246559  0.03463027  0.22740123    -0.23500
H1547       H  0.93867639  0.03222314  0.18763005     0.17600
C1548       C  0.92749265  0.02682651  0.13875403     0.25600
C1549       C  0.93567178  0.02672033  0.11711472    -0.12100
C1550       C  0.94470313  0.00734308  0.10790580    -0.26100
C1551       C  0.94561589  0.98805100  0.12112494     0.36600
C1552       C  0.93716751  0.98814443  0.14267177    -0.27700
F1553       F  0.91847267  0.04568522  0.14686527    -0.19800
H1554       H  0.93486274  0.04189413  0.10754094     0.15900
F1555       F  0.95433115  0.96896799  0.11323316    -0.23500
H1556       H  0.93771098  0.97306021  0.15241916     0.17700
C1557       C  0.91795465  0.02989308  0.32418402    -0.27600
C1558       C  0.91533817  0.01431623  0.34124337     0.06000
C1559       C  0.90340937  0.99490157  0.33702119     0.25600
C1560       C  0.89320952  0.99171993  0.31657417    -0.12100
C1561       C  0.89468091  0.00781318  0.29964591    -0.26000
C1562       C  0.90790428  0.02666501  0.30358732     0.36400
C1563       C  0.92395343  0.01876078  0.36374600     0.06000
F1564       F  0.90149784  0.97894013  0.35279519    -0.19800
H1565       H  0.88407750  0.97660917  0.31464163     0.15900
F1566       F  0.91047401  0.04243110  0.28771659    -0.23500
H1567       H  0.92715035  0.04497406  0.32703951     0.17600
C1568       C  0.94592535  0.02539431  0.36719825     0.25600
C1569       C  0.95369863  0.02903158  0.38867285    -0.12100
C1570       C  0.93981760  0.02586139  0.40706915    -0.26100
C1571       C  0.91775537  0.01955927  0.40354122     0.36600
C1572       C  0.90992889  0.01623394  0.38207802    -0.27700
F1573       F  0.96009746  0.02751847  0.34994075    -0.19800
H1574       H  0.97083338  0.03365115  0.39094140     0.15900
F1575       F  0.90367832  0.01673779  0.42077408    -0.23500
H1576       H  0.89280344  0.01160823  0.37975434     0.17700
C1577       C  0.84146346  0.07722404  0.22042011    -0.27600
C1578       C  0.82995294  0.08972027  0.23616896     0.06000
C1579       C  0.82408004  0.07974364  0.25636071     0.25600
C1580       C  0.83104174  0.05825827  0.26134815    -0.12100
C1581       C  0.84405289  0.04626437  0.24636411    -0.26000
C1582       C  0.84855688  0.05565384  0.22545111     0.36400
C1583       C  0.82553731  0.11359202  0.23245795     0.06000
F1584       F  0.81226436  0.09113021  0.27161434    -0.19800
H1585       H  0.82711178  0.05132352  0.27742694     0.15900
F1586       F  0.86134779  0.04485107  0.21059513    -0.23500
H1587       H  0.84605883  0.08463212  0.20473626     0.17600
C1588       C  0.83390932  0.12926705  0.24736255     0.25600
C1589       C  0.82821649  0.15156063  0.24524647    -0.12100
C1590       C  0.81411021  0.15883584  0.22816292    -0.26100
C1591       C  0.80664230  0.14323946  0.21250968     0.36600
C1592       C  0.81240252  0.12082544  0.21467495    -0.27700
F1593       F  0.84748234  0.12294140  0.26416253    -0.19800
H1594       H  0.83456630  0.16308932  0.25735264     0.15900
F1595       F  0.79306132  0.14937923  0.19566174    -0.23500
H1596       H  0.80596320  0.10898230  0.20292392     0.17700
C1597       C  0.88965707  0.23579359  0.30159181    -0.27600
C1598       C  0.89672475  0.25434337  0.31360709     0.06000
C1599       C  0.88253942  0.27266470  0.31529843     0.25600
C1600       C  0.86185082  0.27247959  0.30506705    -0.12100
C1601       C  0.85468221  0.25404346  0.29286059    -0.26000
C1602       C  0.86887275  0.23558219  0.29126986     0.36400
C1603       C  0.91895889  0.25488361  0.32406470     0.06000
F1604       F  0.88851461  0.29066420  0.32724357    -0.19800
H1605       H  0.85139188  0.28690753  0.30682277     0.15900
F1606       F  0.86280327  0.21735345  0.27973900    -0.23500
H1607       H  0.90039545  0.22155809  0.29993246     0.17600
C1608       C  0.92608024  0.23794503  0.33849825     0.25600
C1609       C  0.94666723  0.23943673  0.34906275    -0.12100
C1610       C  0.96060808  0.25755085  0.34503305    -0.26100
C1611       C  0.95363695  0.27429040  0.33040221     0.36600
C1612       C  0.93300550  0.27295803  0.32009001    -0.27700
F1613       F  0.91293534  0.22026942  0.34279875    -0.19800
H1614       H  0.95186427  0.22631818  0.36020160     0.15900
F1615       F  0.96655315  0.29222973  0.32653015    -0.23500
H1616       H  0.92795448  0.28611497  0.30893647     0.17700
C1617       C  0.61993350  0.27757921  0.17467979    -0.27600
C1618       C  0.61008400  0.25738214  0.16883859     0.06000
C1619       C  0.62359414  0.23849052  0.16700789     0.25600
C1620       C  0.64617601  0.23967625  0.17166658    -0.12100
C1621       C  0.65599000  0.25969840  0.17811841    -0.26000
C1622       C  0.64261329  0.27879240  0.17932131     0.36400
C1623       C  0.58602611  0.25615373  0.16367482     0.06000
F1624       F  0.61511189  0.21889583  0.16017327    -0.19800
H1625       H  0.65595387  0.22471847  0.17044249     0.15900
F1626       F  0.65137820  0.29867043  0.18487545    -0.23500
H1627       H  0.60998504  0.29242569  0.17588367     0.17600
C1628       C  0.57291239  0.23881511  0.17207619     0.25600
C1629       C  0.55149844  0.23551970  0.16402552    -0.12100
C1630       C  0.54249030  0.24977588  0.14798398    -0.26100
C1631       C  0.55472640  0.26835011  0.14118410     0.36600
C1632       C  0.57634823  0.27143651  0.14892864    -0.27700
F1633       F  0.58106393  0.22457651  0.18750634    -0.19800
H1634       H  0.54230465  0.22112890  0.16947175     0.15900
F1635       F  0.54663533  0.28234019  0.12552801    -0.23500
H1636       H  0.58599247  0.28501848  0.14232484     0.17700
C1637       C  0.01690944  0.33416496  0.89717691    -0.27600
C1638       C  0.01400639  0.33595970  0.92012627     0.06000
C1639       C  0.00580114  0.31770718  0.93208508     0.25600
C1640       C  0.99949655  0.29839818  0.92094496    -0.12100
C1641       C  0.00131268  0.29718589  0.89785648    -0.26000
C1642       C  0.01066978  0.31493815  0.88611105     0.36400
C1643       C  0.01677435  0.35779074  0.93074430     0.06000
F1644       F  0.00247062  0.31913278  0.95423626    -0.19800
H1645       H  0.99224762  0.28482699  0.93016414     0.15900
F1646       F  0.01305809  0.31391839  0.86380569    -0.23500
H1647       H  0.02326658  0.34803274  0.88772424     0.17600
C1648       C  0.03171171  0.36113909  0.94822349     0.25600
C1649       C  0.03353787  0.38204469  0.95801842    -0.12100
C1650       C  0.02045288  0.39990594  0.95057975    -0.26100
C1651       C  0.00550079  0.39633475  0.93301471     0.36600
C1652       C  0.00384523  0.37555411  0.92323374    -0.27700
F1653       F  0.04476140  0.34434520  0.95553338    -0.19800
H1654       H  0.04524016  0.38424219  0.97140526     0.15900
F1655       F  0.99212781  0.41274792  0.92540260    -0.23500
H1656       H  0.99211177  0.37319829  0.90988602     0.17700
C1657       C  0.97831916  0.13912898  0.92956808    -0.27600
C1658       C  0.99682326  0.15320483  0.92958652     0.06000
C1659       C  0.01651434  0.14556773  0.93953541     0.25600
C1660       C  0.01757004  0.12432019  0.94892938    -0.12100
C1661       C  0.99892300  0.11047370  0.94918672    -0.26000
C1662       C  0.97924326  0.11812722  0.93938977     0.36400
C1663       C  0.99499764  0.17584097  0.91967791     0.06000
F1664       F  0.03449220  0.15887580  0.94099810    -0.19800
H1665       H  0.03286870  0.11888112  0.95654057     0.15900
F1666       F  0.96102026  0.10508635  0.93876629    -0.23500
H1667       H  0.96303517  0.14437587  0.92180141     0.17600
C1668       C  0.01138153  0.18447954  0.90549728     0.25600
C1669       C  0.00868537  0.20536746  0.89569330    -0.12100
C1670       C  0.98941959  0.21776862  0.89926826    -0.26100
C1671       C  0.97315273  0.20932972  0.91350120     0.36600
C1672       C  0.97604327  0.18870897  0.92372777    -0.27700
F1673       F  0.02937727  0.17229574  0.90001530    -0.19800
H1674       H  0.02119483  0.21137600  0.88437209     0.15900
F1675       F  0.95441841  0.22100077  0.91745252    -0.23500
H1676       H  0.96326326  0.18265809  0.93470197     0.17700
C1677       C  0.10733233  0.22445824  0.81922624    -0.27600
C1678       C  0.09775322  0.24503880  0.82418333     0.06000
C1679       C  0.11041848  0.26431866  0.82139792     0.25600
C1680       C  0.13225878  0.26301190  0.81423675    -0.12100
C1681       C  0.14205058  0.24250295  0.80941623    -0.26000
C1682       C  0.12927855  0.22313319  0.81186959     0.36400
C1683       C  0.07490320  0.24659787  0.83296438     0.06000
F1684       F  0.10152983  0.28456172  0.82526109    -0.19800
H1685       H  0.14146243  0.27824075  0.81222210     0.15900
F1686       F  0.13807040  0.20291689  0.80769396    -0.23500
H1687       H  0.09794465  0.20937267  0.82146492     0.17600
C1688       C  0.05688945  0.23680237  0.82201826     0.25600
C1689       C  0.03537135  0.23966432  0.83007530    -0.12100
C1690       C  0.03144164  0.25232112  0.84914867    -0.26100
C1691       C  0.04956209  0.26207941  0.86001932     0.36600
C1692       C  0.07096603  0.25899946  0.85211854    -0.27700
F1693       F  0.05999635  0.22505939  0.80319680    -0.19800
H1694       H  0.02178342  0.23187579  0.82143668     0.15900
F1695       F  0.04671030  0.27543093  0.87776109    -0.23500
H1696       H  0.08457348  0.26665154  0.86086897     0.17700
C1697       C  0.21846863  0.30518357  0.88973632    -0.27600
C1698       C  0.23671685  0.31677810  0.89806144     0.06000
C1699       C  0.25459398  0.32135861  0.88399152     0.25600
C1700       C  0.25448284  0.31398981  0.86220185    -0.12100
C1701       C  0.23655414  0.30186847  0.85381544    -0.26000
C1702       C  0.21834554  0.29768314  0.86780663     0.36400
C1703       C  0.23754157  0.32427745  0.92131800     0.06000
F1704       F  0.27216487  0.33323109  0.89128963    -0.19800
H1705       H  0.26865575  0.31770265  0.85193638     0.15900
F1706       F  0.20058628  0.28610942  0.86051586    -0.23500
H1707       H  0.20451456  0.30159570  0.90034442     0.17600
C1708       C  0.22186606  0.33928115  0.92960269     0.25600
C1709       C  0.22586086  0.35020917  0.94963207    -0.12100
C1710       C  0.24529037  0.34598250  0.96165040    -0.26100
C1711       C  0.25990556  0.32957615  0.95426900     0.36600
C1712       C  0.25598898  0.31877510  0.93432574    -0.27700
F1713       F  0.20382973  0.34486585  0.91740543    -0.19800
H1714       H  0.21474993  0.36323145  0.95472144     0.15900
F1715       F  0.27886247  0.32526158  0.96554101    -0.23500
H1716       H  0.26811188  0.30706825  0.92831552     0.17700
C1717       C  0.23476618  0.17372570  0.62316202    -0.27600
C1718       C  0.25229248  0.18178189  0.61030575     0.06000
C1719       C  0.26876189  0.19461109  0.62039618     0.25600
C1720       C  0.26784022  0.19893628  0.64307027    -0.12100
C1721       C  0.25042461  0.19066733  0.65611124    -0.26000
C1722       C  0.23376292  0.17806933  0.64582255     0.36400
C1723       C  0.25384341  0.17539192  0.58676928     0.06000
F1724       F  0.28557476  0.20319363  0.60827022    -0.19800
H1725       H  0.28069189  0.20902168  0.65035288     0.15900
F1726       F  0.21658514  0.16972194  0.65758586    -0.23500
H1727       H  0.22203437  0.16361995  0.61568304     0.17600
C1728       C  0.27242844  0.16396251  0.57907414     0.25600
C1729       C  0.27242522  0.15474187  0.55796260    -0.12100
C1730       C  0.25368358  0.15634183  0.54405349    -0.26100
C1731       C  0.23592319  0.16969408  0.55118697     0.36600
C1732       C  0.23591266  0.17879431  0.57242788    -0.27700
F1733       F  0.29003456  0.16025734  0.59256078    -0.19800
H1734       H  0.28702473  0.14573305  0.55342448     0.15900
F1735       F  0.21786965  0.17271145  0.53814599    -0.23500
H1736       H  0.22154829  0.18788873  0.57798874     0.17700
C1737       C  0.51595545  0.35754335  0.54875804    -0.27600
C1738       C  0.49901266  0.34823064  0.56150182     0.06000
C1739       C  0.48235115  0.36201488  0.56991721     0.25600
C1740       C  0.48238257  0.38464938  0.56521176    -0.12100
C1741       C  0.49908438  0.39410482  0.55210579    -0.26000
C1742       C  0.51600404  0.38024012  0.54395103     0.36400
C1743       C  0.49907097  0.32437597  0.56706930     0.06000
F1744       F  0.46629951  0.35363767  0.58318164    -0.19800
H1745       H  0.46925843  0.39478006  0.57190640     0.15900
F1746       F  0.53247532  0.38844137  0.53111804    -0.23500
H1747       H  0.52904188  0.34716546  0.54235936     0.17600
C1748       C  0.48054977  0.31122445  0.56233287     0.25600
C1749       C  0.47828954  0.29043379  0.57225309    -0.12100
C1750       C  0.49450181  0.28245322  0.58689939    -0.26100
C1751       C  0.51409722  0.29458512  0.58973492     0.36600
C1752       C  0.51633841  0.31544080  0.57982029    -0.27700
F1753       F  0.46396705  0.31916440  0.54937537    -0.19800
H1754       H  0.46306675  0.28131989  0.56993810     0.15900
F1755       F  0.52987913  0.28755219  0.60411442    -0.23500
H1756       H  0.53073999  0.32536019  0.58359735     0.17700
C1757       C  0.48787961  0.16345217  0.60548840    -0.27600
C1758       C  0.49230009  0.16122378  0.58284848     0.06000
C1759       C  0.49558586  0.18035666  0.56990531     0.25600
C1760       C  0.49398638  0.20137797  0.57948760    -0.12100
C1761       C  0.48871088  0.20356997  0.60196394    -0.26000
C1762       C  0.48607421  0.18436606  0.61500364     0.36400
C1763       C  0.49262914  0.13887227  0.57290267     0.06000
F1764       F  0.50042404  0.17867557  0.54806257    -0.19800
H1765       H  0.49630542  0.21594613  0.56924818     0.15900
F1766       F  0.48201848  0.18578441  0.63704297    -0.23500
H1767       H  0.48539101  0.14891918  0.61574662     0.17600
C1768       C  0.50680728  0.12237102  0.58117735     0.25600
C1769       C  0.50600717  0.10093692  0.57260790    -0.12100
C1770       C  0.49086374  0.09540323  0.55580813    -0.26100
C1771       C  0.47676922  0.11206896  0.54743773     0.36600
C1772       C  0.47777094  0.13357909  0.55588540    -0.27700
F1773       F  0.52154700  0.12703995  0.59745777    -0.19800
H1774       H  0.51715507  0.08858083  0.57933308     0.15900
F1775       F  0.46216042  0.10773045  0.53095832    -0.23500
H1776       H  0.46659842  0.14606101  0.54943061     0.17700
C1777       C  0.41635471  0.27171093  0.66646260    -0.27600
C1778       C  0.41250279  0.25345215  0.68027679     0.06000
C1779       C  0.42920041  0.23750250  0.68273808     0.25600
C1780       C  0.44845506  0.23887048  0.67003722    -0.12100
C1781       C  0.45137195  0.25583277  0.65415916    -0.26000
C1782       C  0.43559307  0.27321979  0.65381134     0.36400
C1783       C  0.39040295  0.25044012  0.69047693     0.06000
F1784       F  0.42662554  0.22025138  0.69695671    -0.19800
H1785       H  0.46060225  0.22577839  0.67161449     0.15900
F1786       F  0.43817385  0.29188476  0.64168288    -0.23500
H1787       H  0.40395866  0.28454669  0.66473435     0.17600
C1788       C  0.38005265  0.26778594  0.70186544     0.25600
C1789       C  0.35821902  0.26560625  0.70903117    -0.12100
C1790       C  0.34609990  0.24614465  0.70493962    -0.26100
C1791       C  0.35675853  0.22851824  0.69410024     0.36600
C1792       C  0.37865611  0.23072048  0.68699118    -0.27700
F1793       F  0.39100771  0.28692715  0.70595042    -0.19800
H1794       H  0.35070263  0.27942090  0.71753274     0.15900
F1795       F  0.34599621  0.20930595  0.68990873    -0.23500
H1796       H  0.38620945  0.21723527  0.67800213     0.17700
C1797       C  0.22805796  0.82253194  0.93914913    -0.27600
C1798       C  0.24389558  0.82319132  0.92221450     0.06000
C1799       C  0.26240381  0.83687297  0.92479348     0.25600
C1800       C  0.26499673  0.84966197  0.94375974    -0.12100
C1801       C  0.24926464  0.84921955  0.96099041    -0.26000
C1802       C  0.23067752  0.83531752  0.95831868     0.36400
C1803       C  0.24051530  0.81109976  0.90111071     0.06000
F1804       F  0.27747258  0.83895452  0.90830394    -0.19800
H1805       H  0.27903440  0.86053332  0.94391418     0.15900
F1806       F  0.21464665  0.83460214  0.97397534    -0.23500
H1807       H  0.21349703  0.81228978  0.93739883     0.17600
C1808       C  0.25747932  0.79808508  0.89205485     0.25600
C1809       C  0.25543076  0.78948468  0.87071304    -0.12100
C1810       C  0.23636966  0.79349002  0.85791609    -0.26100
C1811       C  0.21886153  0.80550383  0.86753105     0.36600
C1812       C  0.22099582  0.81418172  0.88889148    -0.27700
F1813       F  0.27621255  0.79392877  0.90375492    -0.19800
H1814       H  0.26904285  0.77997696  0.86407905     0.15900
F1815       F  0.19985109  0.80937326  0.85620609    -0.23500
H1816       H  0.20769215  0.82410089  0.89555895     0.17700
C1817       C  0.33225635  0.89648563  0.01865476    -0.27600
C1818       C  0.33768233  0.91806458  0.01198133     0.06000
C1819       C  0.32085910  0.93196528  0.00366294     0.25600
C1820       C  0.29916182  0.92404340  0.00147426    -0.12100
C1821       C  0.29396175  0.90228614  0.00770835    -0.26000
C1822       C  0.31062522  0.88866315  0.01660268     0.36400
C1823       C  0.36103786  0.92554451  0.01317371     0.06000
F1824       F  0.32566541  0.95272604  0.99650892    -0.19800
H1825       H  0.28666443  0.93451435  0.99396685     0.15900
F1826       F  0.30614239  0.86738259  0.02228708    -0.23500
H1827       H  0.34492701  0.88554229  0.02511978     0.17600
C1828       C  0.36703113  0.94387894  0.02599309     0.25600
C1829       C  0.38917081  0.95042609  0.02741742    -0.12100
C1830       C  0.40589275  0.93897942  0.01594157    -0.26100
C1831       C  0.39977410  0.92055090  0.00306879     0.36600
C1832       C  0.37761085  0.91388836  0.00187945    -0.27700
F1833       F  0.35151165  0.95519439  0.03752278    -0.19800
H1834       H  0.39316218  0.96465663  0.03747102     0.15900
F1835       F  0.41507562  0.90900799  0.99147807    -0.23500
H1836       H  0.37330563  0.89968464  0.99190207     0.17700
C1837       C  0.18309236  0.93350807  0.98737269    -0.27600
C1838       C  0.17238415  0.93344775  0.00799720     0.06000
C1839       C  0.18324770  0.92344404  0.02617399     0.25600
C1840       C  0.20355444  0.91256819  0.02329621    -0.12100
C1841       C  0.21346782  0.91151149  0.00232712    -0.26000
C1842       C  0.20343574  0.92292012  0.98458242     0.36400
C1843       C  0.14936090  0.94232201  0.00977242     0.06000
F1844       F  0.17405664  0.92376897  0.04663547    -0.19800
H1845       H  0.21093207  0.90398995  0.03725376     0.15900
F1846       F  0.21298998  0.92330432  0.96428404    -0.23500
H1847       H  0.17524963  0.94091072  0.97301786     0.17600
C1848       C  0.14308761  0.96211701  0.99900067     0.25600
C1849       C  0.12093678  0.96887378  0.99863002    -0.12100
C1850       C  0.10455937  0.95644472  0.00944096    -0.26100
C1851       C  0.11089651  0.93710116  0.02092470     0.36600
C1852       C  0.13297013  0.93004945  0.02083789    -0.27700
F1853       F  0.15839626  0.97512141  0.98899447    -0.19800
H1854       H  0.11662439  0.98408484  0.99009764     0.15900
F1855       F  0.09565639  0.92451754  0.03157034    -0.23500
H1856       H  0.13709707  0.91454833  0.02890297     0.17700
C1857       C  0.26907567  0.83389352  0.12444951    -0.27600
C1858       C  0.24894979  0.83793930  0.11348770     0.06000
C1859       C  0.22913054  0.83449107  0.12513432     0.25600
C1860       C  0.22952296  0.82704118  0.14713329    -0.12100
C1861       C  0.24964521  0.82303842  0.15815916    -0.26000
C1862       C  0.26949709  0.82660280  0.14651269     0.36400
C1863       C  0.24875556  0.84556440  0.08995370     0.06000
F1864       F  0.20934570  0.83880779  0.11541811    -0.19800
H1865       H  0.21397932  0.82459624  0.15563401     0.15900
F1866       F  0.28934827  0.82245668  0.15616941    -0.23500
H1867       H  0.28456454  0.83606306  0.11577657     0.17600
C1868       C  0.26201583  0.86338273  0.08297473     0.25600
C1869       C  0.26187674  0.87026277  0.06080862    -0.12100
C1870       C  0.24855375  0.85960236  0.04504619    -0.26100
C1871       C  0.23512673  0.84189235  0.05204509     0.36600
C1872       C  0.23531858  0.83496358  0.07423009    -0.27700
F1873       F  0.27482117  0.87445958  0.09767343    -0.19800
H1874       H  0.27250748  0.88382166  0.05594327     0.15900
F1875       F  0.22137357  0.83161226  0.03763144    -0.23500
H1876       H  0.22502293  0.82114541  0.07911373     0.17700
C1877       C  0.32764217  0.89313087  0.27450417    -0.27600
C1878       C  0.32308711  0.90705938  0.25644711     0.06000
C1879       C  0.31154569  0.89857985  0.23817490     0.25600
C1880       C  0.30469067  0.87649530  0.23805128    -0.12100
C1881       C  0.30920054  0.86241878  0.25613611    -0.26000
C1882       C  0.32072174  0.87108322  0.27449305     0.36400
C1883       C  0.33224887  0.92972389  0.25586351     0.06000
F1884       F  0.30763036  0.91142493  0.22009288    -0.19800
H1885       H  0.29589076  0.87041885  0.22369581     0.15900
F1886       F  0.32540587  0.85836106  0.29247922    -0.23500
H1887       H  0.33671366  0.89936433  0.28863013     0.17600
C1888       C  0.31869468  0.94836563  0.25231220     0.25600
C1889       C  0.32817549  0.96933330  0.24933867    -0.12100
C1890       C  0.35118199  0.97177785  0.24976128    -0.26100
C1891       C  0.36458859  0.95333900  0.25446187     0.36600
C1892       C  0.35515899  0.93253789  0.25758779    -0.27700
F1893       F  0.29640803  0.94618280  0.25130259    -0.19800
H1894       H  0.31768389  0.98342947  0.24573762     0.15900
F1895       F  0.38691879  0.95533191  0.25507810    -0.23500
H1896       H  0.36584459  0.91839823  0.26036636     0.17700
C1897       C  0.14390019  0.59816096  0.25987449    -0.27600
C1898       C  0.16665755  0.60197857  0.25965540     0.06000
C1899       C  0.18118112  0.58388368  0.25839633     0.25600
C1900       C  0.17290258  0.56225236  0.25688095    -0.12100
C1901       C  0.14993287  0.55830300  0.25690895    -0.26000
C1902       C  0.13560330  0.57671318  0.25871778     0.36400
C1903       C  0.17482906  0.62501817  0.26027191     0.06000
F1904       F  0.20335159  0.58718325  0.25817073    -0.19800
H1905       H  0.18465842  0.54888763  0.25588364     0.15900
F1906       F  0.11335708  0.57394817  0.25942823    -0.23500
H1907       H  0.13247472  0.61191257  0.26107325     0.17600
C1908       C  0.16885602  0.64001789  0.24348521     0.25600
C1909       C  0.17590107  0.66198734  0.24435389    -0.12100
C1910       C  0.18889127  0.66957385  0.26209605    -0.26100
C1911       C  0.19462535  0.65449360  0.27910779     0.36600
C1912       C  0.18773137  0.63240051  0.27805396    -0.27700
F1913       F  0.15645959  0.63328586  0.22602918    -0.19800
H1914       H  0.17122519  0.67304622  0.23098372     0.15900
F1915       F  0.20705225  0.66091981  0.29665588    -0.23500
H1916       H  0.19222761  0.62108059  0.29127459     0.17700
C1917       C  0.07515791  0.77876229  0.16038803    -0.27600
C1918       C  0.08590737  0.76052844  0.17014349     0.06000
C1919       C  0.07520969  0.73987396  0.17019457     0.25600
C1920       C  0.05437181  0.73755602  0.16050614    -0.12100
C1921       C  0.04376685  0.75566614  0.15036440    -0.26000
C1922       C  0.05433747  0.77640359  0.15051311     0.36400
C1923       C  0.10827320  0.76297374  0.18007369     0.06000
F1924       F  0.08527287  0.72168584  0.17882315    -0.19800
H1925       H  0.04666494  0.72139451  0.16057381     0.15900
F1926       F  0.04520064  0.79414612  0.14012260    -0.23500
H1927       H  0.08300373  0.79485456  0.16023688     0.17600
C1928       C  0.12555129  0.77329540  0.16836064     0.25600
C1929       C  0.14668256  0.77481803  0.17774069    -0.12100
C1930       C  0.15107699  0.76573979  0.19874534    -0.26100
C1931       C  0.13373787  0.75569150  0.21054997     0.36600
C1932       C  0.11257509  0.75448287  0.20133393    -0.27700
F1933       F  0.12225792  0.78110580  0.14751016    -0.19800
H1934       H  0.15980833  0.78248408  0.16827740     0.15900
F1935       F  0.13714151  0.74734529  0.23117721    -0.23500
H1936       H  0.09947162  0.74685487  0.21085481     0.17700
C1937       C  0.00233190  0.68892946  0.06540159    -0.27600
C1938       C  0.99659304  0.67014525  0.07798003     0.06000
C1939       C  0.99075715  0.67299946  0.10024044     0.25600
C1940       C  0.99157681  0.69385750  0.10982564    -0.12100
C1941       C  0.99709734  0.71291054  0.09742938    -0.26000
C1942       C  0.00255306  0.71010403  0.07487680     0.36400
C1943       C  0.99722811  0.64754886  0.06825668     0.06000
F1944       F  0.98413364  0.65560114  0.11287177    -0.19800
H1945       H  0.98801177  0.69503729  0.12733357     0.15900
F1946       F  0.00941744  0.72722950  0.06212014    -0.23500
H1947       H  0.00737607  0.68715395  0.04832347     0.17600
C1948       C  0.98797527  0.64322453  0.04736840     0.25600
C1949       C  0.98762578  0.62165890  0.03911509    -0.12100
C1950       C  0.99637170  0.60383114  0.05145959    -0.26100
C1951       C  0.00603700  0.60824764  0.07218027     0.36600
C1952       C  0.00660661  0.62987140  0.08030113    -0.27700
F1953       F  0.97854011  0.65965747  0.03520845    -0.19800
H1954       H  0.98021162  0.61893102  0.02303443     0.15900
F1955       F  0.01463151  0.59172845  0.08484015    -0.23500
H1956       H  0.01434418  0.63277326  0.09619547     0.17700
C1957       C  0.98803508  0.87933292  0.08200507    -0.27600
C1958       C  0.00749920  0.86673323  0.08098637     0.06000
C1959       C  0.02670994  0.87664663  0.07242292     0.25600
C1960       C  0.02635191  0.89874451  0.06522542    -0.12100
C1961       C  0.00688443  0.91146956  0.06645361    -0.26000
C1962       C  0.98764988  0.90138194  0.07493525     0.36400
C1963       C  0.00739074  0.84337182  0.08893830     0.06000
F1964       F  0.04596613  0.86516990  0.07149902    -0.19800
H1965       H  0.04142088  0.90592630  0.05879084     0.15900
F1966       F  0.96826989  0.91261349  0.07616873    -0.23500
H1967       H  0.97291287  0.87197760  0.08812275     0.17600
C1968       C  0.99803764  0.83790138  0.10951524     0.25600
C1969       C  0.99678221  0.81586837  0.11643759    -0.12100
C1970       C  0.00479744  0.79860768  0.10312126    -0.26100
C1971       C  0.01483578  0.80415932  0.08279424     0.36600
C1972       C  0.01597198  0.82629275  0.07578846    -0.27700
F1973       F  0.99032273  0.85392394  0.12314871    -0.19800
H1974       H  0.98923690  0.81249550  0.13227682     0.15900
F1975       F  0.02415957  0.78838356  0.06993244    -0.23500
H1976       H  0.02333506  0.83005861  0.05989737     0.17700
C1977       C  0.21387452  0.65806187  0.57777978    -0.27600
C1978       C  0.22838934  0.67414440  0.58606336     0.06000
C1979       C  0.24456257  0.68309471  0.57191259     0.25600
C1980       C  0.24736670  0.67461373  0.55062262    -0.12100
C1981       C  0.23399045  0.65729254  0.54305499    -0.26000
C1982       C  0.21670081  0.64959661  0.55648056     0.36400
C1983       C  0.22849995  0.67925349  0.61006272     0.06000
F1984       F  0.25849149  0.69910786  0.57914294    -0.19800
H1985       H  0.26105971  0.68039579  0.54064222     0.15900
F1986       F  0.20430523  0.63206277  0.55012144    -0.23500
H1987       H  0.20151632  0.65069189  0.58843480     0.17600
C1988       C  0.20894722  0.68437606  0.62145010     0.25600
C1989       C  0.20948384  0.68836962  0.64423717    -0.12100
C1990       C  0.22946062  0.68714569  0.65616570    -0.26100
C1991       C  0.24895676  0.68166290  0.64474497     0.36600
C1992       C  0.24838639  0.67775169  0.62200013    -0.27700
F1993       F  0.18940814  0.68595770  0.61049782    -0.19800
H1994       H  0.19421340  0.69257861  0.65252373     0.15900
F1995       F  0.26871845  0.68052958  0.65535157    -0.23500
H1996       H  0.26357838  0.67329068  0.61369684     0.17700
C1997       C  0.31220056  0.57436890  0.49526645    -0.27600
C1998       C  0.32552121  0.57519067  0.51428050     0.06000
C1999       C  0.31747672  0.58604986  0.53308727     0.25600
C2000       C  0.29723479  0.59716766  0.53233886    -0.12100
C2001       C  0.28458814  0.59807549  0.51267408    -0.26000
C2002       C  0.29184878  0.58534066  0.49453376     0.36400
C2003       C  0.34853990  0.56673350  0.51362676     0.06000
F2004       F  0.32984639  0.58725282  0.55180646    -0.19800
H2005       H  0.29218511  0.60537447  0.54725210     0.15900
F2006       F  0.27987613  0.58461201  0.47552272    -0.23500
H2007       H  0.31791191  0.56575571  0.48067564     0.17600
C2008       C  0.35702634  0.55269150  0.53023221     0.25600
C2009       C  0.37922047  0.54612380  0.52980569    -0.12100
C2010       C  0.39334502  0.55327037  0.51274372    -0.26100
C2011       C  0.38463723  0.56714021  0.49598496     0.36600
C2012       C  0.36254092  0.57372042  0.49651546    -0.27700
F2013       F  0.34377271  0.54495214  0.54660776    -0.19800
H2014       H  0.38526527  0.53521003  0.54273856     0.15900
F2015       F  0.39738177  0.57452486  0.47903468    -0.23500
H2016       H  0.35641529  0.58468834  0.48365407     0.17700
C2017       C  0.13011905  0.56550626  0.47165991    -0.27600
C2018       C  0.13565509  0.57914057  0.48963332     0.06000
C2019       C  0.11932544  0.58338461  0.50570546     0.25600
C2020       C  0.09825315  0.57403754  0.50385290    -0.12100
C2021       C  0.09299411  0.55983663  0.48627916    -0.26000
C2022       C  0.10921599  0.55571523  0.47010652     0.36400
C2023       C  0.15842213  0.58854041  0.49175994     0.06000
F2024       F  0.12390807  0.59582538  0.52377481    -0.19800
H2025       H  0.08623349  0.57737035  0.51666383     0.15900
F2026       F  0.10491200  0.54232943  0.45265481    -0.23500
H2027       H  0.14200602  0.56238018  0.45868892     0.17600
C2028       C  0.17733666  0.57570803  0.48735990     0.25600
C2029       C  0.19851730  0.58454000  0.49028485    -0.12100
C2030       C  0.20162820  0.60618160  0.49830381    -0.26100
C2031       C  0.18254526  0.61904433  0.50249142     0.36600
C2032       C  0.16142730  0.61041584  0.49883383    -0.27700
F2033       F  0.17550162  0.55430471  0.48094627    -0.19800
H2034       H  0.21248483  0.57415689  0.48628386     0.15900
F2035       F  0.18374825  0.63967993  0.51101668    -0.23500
H2036       H  0.14729199  0.62095142  0.50185802     0.17700
C2037       C  0.23570461  0.68640098  0.44197990    -0.27600
C2038       C  0.24568791  0.67747049  0.42305695     0.06000
C2039       C  0.25615803  0.65684526  0.42450940     0.25600
C2040       C  0.25685968  0.64542081  0.44456375    -0.12100
C2041       C  0.24754937  0.65445361  0.46385091    -0.26000
C2042       C  0.23674119  0.67509080  0.46232955     0.36400
C2043       C  0.24580021  0.68960081  0.40176017     0.06000
F2044       F  0.26555546  0.64762640  0.40637513    -0.19800
H2045       H  0.26465272  0.62929522  0.44487555     0.15900
F2046       F  0.22799049  0.68479149  0.48051234    -0.23500
H2047       H  0.22761762  0.70237476  0.44108693     0.17600
C2048       C  0.22630717  0.69253756  0.38951256     0.25600
C2049       C  0.22713988  0.70173362  0.36821459    -0.12100
C2050       C  0.24741013  0.70831114  0.35880558    -0.26100
C2051       C  0.26684285  0.70584717  0.37148447     0.36600
C2052       C  0.26596580  0.69647869  0.39267121    -0.27700
F2053       F  0.20662991  0.68565065  0.39776595    -0.19800
H2054       H  0.21187651  0.70347304  0.35898732     0.15900
F2055       F  0.28681721  0.71180351  0.36324986    -0.23500
H2056       H  0.28116115  0.69416675  0.40190643     0.17700
C2057       C  0.60347137  0.48479420  0.17506740    -0.27600
C2058       C  0.58688961  0.49896626  0.16704219     0.06000
C2059       C  0.57711499  0.51413646  0.18171856     0.25600
C2060       C  0.58448435  0.51558350  0.20367895    -0.12100
C2061       C  0.60157161  0.50184538  0.21146448    -0.26000
C2062       C  0.61064777  0.48604499  0.19700280     0.36400
C2063       C  0.57997199  0.49755479  0.14343437     0.06000
F2064       F  0.56018958  0.52729014  0.17497154    -0.19800
H2065       H  0.57705162  0.52770350  0.21450523     0.15900
F2066       F  0.62609559  0.47133759  0.20409135    -0.23500
H2067       H  0.61106803  0.47277895  0.16422773     0.17600
C2068       C  0.57862136  0.51658857  0.12999474     0.25600
C2069       C  0.57261047  0.51486908  0.10768976    -0.12100
C2070       C  0.56778905  0.49418851  0.09824924    -0.26100
C2071       C  0.56947571  0.47510810  0.11163312     0.36600
C2072       C  0.57554307  0.47683980  0.13392807    -0.27700
F2073       F  0.58365321  0.53681960  0.13823374    -0.19800
H2074       H  0.57148859  0.52985143  0.09784197     0.15900
F2075       F  0.56554297  0.45472477  0.10317558    -0.23500
H2076       H  0.57663565  0.46191597  0.14387107     0.17700
C2077       C  0.55335439  0.52812928  0.36868312    -0.27600
C2078       C  0.56574818  0.51048564  0.36019378     0.06000
C2079       C  0.56871754  0.49137925  0.37318329     0.25600
C2080       C  0.55986697  0.49013727  0.39442784    -0.12100
C2081       C  0.54785347  0.50792002  0.40333134    -0.26000
C2082       C  0.54449428  0.52695448  0.39009071     0.36400
C2083       C  0.57665135  0.51216316  0.33833931     0.06000
F2084       F  0.58019207  0.47381545  0.36525712    -0.19800
H2085       H  0.56263096  0.47517322  0.40397440     0.15900
F2086       F  0.53292211  0.54452881  0.39781313    -0.23500
H2087       H  0.55099825  0.54302662  0.35892038     0.17600
C2088       C  0.56456867  0.51566322  0.31874378     0.25600
C2089       C  0.57511563  0.51455861  0.29809589    -0.12100
C2090       C  0.59798158  0.51024369  0.29671640    -0.26100
C2091       C  0.61009395  0.50828781  0.31666550     0.36600
C2092       C  0.59950244  0.50900996  0.33707150    -0.27700
F2093       F  0.54245693  0.51927679  0.31953018    -0.19800
H2094       H  0.56515830  0.51690353  0.28344982     0.15900
F2095       F  0.63228049  0.50494452  0.31643095    -0.23500
H2096       H  0.60917348  0.50674131  0.35202520     0.17700
C2097       C  0.67745369  0.43811187  0.24073517    -0.27600
C2098       C  0.66522312  0.41865073  0.24407193     0.06000
C2099       C  0.64315602  0.42013433  0.25095494     0.25600
C2100       C  0.63361523  0.44079860  0.25470137    -0.12100
C2101       C  0.64585939  0.46031610  0.25154477    -0.26000
C2102       C  0.66779717  0.45885336  0.24424171     0.36400
C2103       C  0.67587703  0.39683380  0.24157271     0.06000
F2104       F  0.63109118  0.40158571  0.25477725    -0.19800
H2105       H  0.61658651  0.44156510  0.26011044     0.15900
F2106       F  0.68011833  0.47737511  0.24135605    -0.23500
H2107       H  0.69454546  0.43718228  0.23555958     0.17600
C2108       C  0.66800833  0.38142115  0.22614294     0.25600
C2109       C  0.67792224  0.36057669  0.22453795    -0.12100
C2110       C  0.69561614  0.35465245  0.23852119    -0.26100
C2111       C  0.70348122  0.37025798  0.25389607     0.36600
C2112       C  0.69374731  0.39116575  0.25523967    -0.27700
F2113       F  0.65086294  0.38660530  0.21254900    -0.19800
H2114       H  0.67151662  0.34894727  0.21255672     0.15900
F2115       F  0.72069705  0.36546747  0.26753246    -0.23500
H2116       H  0.69993440  0.40288172  0.26725827     0.17700
C2117       C  0.76768582  0.32963394  0.41693533    -0.27600
C2118       C  0.76629070  0.34308570  0.39786956     0.06000
C2119       C  0.76366834  0.36603197  0.40046603     0.25600
C2120       C  0.76044111  0.37499973  0.42142792    -0.12100
C2121       C  0.75979537  0.36137705  0.44031163    -0.26000
C2122       C  0.76453396  0.33872894  0.43809128     0.36400
C2123       C  0.76503915  0.33324724  0.37535592     0.06000
F2124       F  0.76324403  0.37970450  0.38257453    -0.19800
H2125       H  0.75731306  0.39259097  0.42282391     0.15900
F2126       F  0.76428597  0.32516901  0.45605545    -0.23500
H2127       H  0.76981119  0.31192199  0.41535600     0.17600
C2128       C  0.78115586  0.31853011  0.36747001     0.25600
C2129       C  0.77955498  0.30997399  0.34595633    -0.12100
C2130       C  0.76175177  0.31572889  0.33194010    -0.26100
C2131       C  0.74552304  0.33029387  0.34008898     0.36600
C2132       C  0.74721821  0.33884910  0.36147462    -0.27700
F2133       F  0.79870244  0.31285833  0.38032294    -0.19800
H2134       H  0.79231457  0.29880437  0.34027741     0.15900
F2135       F  0.72805875  0.33656916  0.32740132    -0.23500
H2136       H  0.73442153  0.34991873  0.36728793     0.17700
C2137       C  0.62292900  0.41927892  0.50386797    -0.27600
C2138       C  0.63647965  0.42902175  0.48775159     0.06000
C2139       C  0.62772126  0.44541391  0.47377615     0.25600
C2140       C  0.60567063  0.45197449  0.47595769    -0.12100
C2141       C  0.59199866  0.44242792  0.49224595    -0.26000
C2142       C  0.60094440  0.42597611  0.50627741     0.36400
C2143       C  0.65940475  0.42114801  0.48500528     0.06000
F2144       F  0.64036328  0.45468986  0.45770540    -0.19800
H2145       H  0.59934018  0.46466013  0.46491713     0.15900
F2146       F  0.58846769  0.41611269  0.52213479    -0.23500
H2147       H  0.62945534  0.40645109  0.51463841     0.17600
C2148       C  0.67756139  0.43459650  0.49028102     0.25600
C2149       C  0.69914479  0.42618077  0.48900321    -0.12100
C2150       C  0.70291206  0.40419315  0.48231770    -0.26100
C2151       C  0.68443905  0.39118895  0.47623742     0.36600
C2152       C  0.66305429  0.39955969  0.47775393    -0.27700
F2153       F  0.67433210  0.45555679  0.49754420    -0.19800
H2154       H  0.71258078  0.43680576  0.49388996     0.15900
F2155       F  0.68701658  0.36989161  0.46964119    -0.23500
H2156       H  0.64921409  0.38902851  0.47353276     0.17700
C2157       C  0.81360873  0.42121253  0.52001522    -0.27600
C2158       C  0.83041479  0.41999032  0.50397107     0.06000
C2159       C  0.82542364  0.41017920  0.48342120     0.25600
C2160       C  0.80430312  0.40168564  0.47925780    -0.12100
C2161       C  0.78756937  0.40327296  0.49517368    -0.26000
C2162       C  0.79234420  0.41313956  0.51561301     0.36400
C2163       C  0.85293950  0.42903499  0.50864930     0.06000
F2164       F  0.84074457  0.40934093  0.46708247    -0.19800
H2165       H  0.80086014  0.39417780  0.46337557     0.15900
F2166       F  0.77664085  0.41433328  0.53155559    -0.23500
H2167       H  0.81700095  0.42820711  0.53612539     0.17600
C2168       C  0.85568544  0.44990223  0.51855993     0.25600
C2169       C  0.87684276  0.45853578  0.52215284    -0.12100
C2170       C  0.89585427  0.44680804  0.51573601    -0.26100
C2171       C  0.89314577  0.42571227  0.50624597     0.36600
C2172       C  0.87195872  0.41695786  0.50290984    -0.27700
F2173       F  0.83791864  0.46247877  0.52391235    -0.19800
H2174       H  0.87826808  0.47485085  0.52933764     0.15900
F2175       F  0.91090543  0.41349643  0.50008288    -0.23500
H2176       H  0.87043615  0.40064361  0.49575074     0.17700
C2177       C  0.31480460  0.55721815  0.73912576    -0.27600
C2178       C  0.32485922  0.57626317  0.74765323     0.06000
C2179       C  0.34630492  0.57473102  0.75626965     0.25600
C2180       C  0.35707126  0.55435073  0.75727206    -0.12100
C2181       C  0.34652325  0.53469858  0.75049605    -0.26000
C2182       C  0.32553362  0.53662856  0.74026777     0.36400
C2183       C  0.31284853  0.59760388  0.74848674     0.06000
F2184       F  0.35693338  0.59305835  0.76360741    -0.19800
H2185       H  0.37380912  0.55396483  0.76360644     0.15900
F2186       F  0.31561478  0.51912259  0.73049152    -0.23500
H2187       H  0.29849378  0.55826580  0.73179035     0.17600
C2188       C  0.30620101  0.60875794  0.72913370     0.25600
C2189       C  0.29600698  0.62957333  0.73049342    -0.12100
C2190       C  0.29228595  0.63959018  0.75116633    -0.26100
C2191       C  0.29845049  0.62795292  0.77051251     0.36600
C2192       C  0.30869544  0.60728846  0.76908949    -0.27700
F2193       F  0.31030031  0.59990897  0.70895328    -0.19800
H2194       H  0.29147720  0.63807275  0.71532686     0.15900
F2195       F  0.29445662  0.63638596  0.79089127    -0.23500
H2196       H  0.31349789  0.59877884  0.78417846     0.17700
C2197       C  0.35005425  0.41212546  0.76900673    -0.27600
C2198       C  0.33219843  0.40646748  0.75530080     0.06000
C2199       C  0.32365381  0.42252877  0.74065175     0.25600
C2200       C  0.33283096  0.44376114  0.73984664    -0.12100
C2201       C  0.35068934  0.44945896  0.75357883    -0.26000
C2202       C  0.35928045  0.43334155  0.76816919     0.36400
C2203       C  0.32247987  0.38391927  0.75659941     0.06000
F2204       F  0.30601010  0.41792258  0.72756902    -0.19800
H2205       H  0.32593798  0.45580477  0.72843020     0.15900
F2206       F  0.37600541  0.43823247  0.78228825    -0.23500
H2207       H  0.35687952  0.40004131  0.78042768     0.17600
C2208       C  0.31961062  0.37116492  0.73743643     0.25600
C2209       C  0.31055899  0.34997031  0.73885713    -0.12100
C2210       C  0.30412126  0.34091082  0.75936738    -0.26100
C2211       C  0.30710036  0.35361892  0.77859513     0.36600
C2212       C  0.31629146  0.37486997  0.77716809    -0.27700
F2213       F  0.32608943  0.37893235  0.71735807    -0.19800
H2214       H  0.30854326  0.34063075  0.72373664     0.15900
F2215       F  0.30158515  0.34540881  0.79878083    -0.23500
H2216       H  0.31844931  0.38437666  0.79216231     0.17700
C2217       C  0.43407846  0.47059603  0.87107704    -0.27600
C2218       C  0.43578901  0.48858870  0.85645655     0.06000
C2219       C  0.44723285  0.50762470  0.86332590     0.25600
C2220       C  0.45624022  0.50870856  0.88466758    -0.12100
C2221       C  0.45387823  0.49094037  0.89960706    -0.26000
C2222       C  0.44296951  0.47164760  0.89236104     0.36400
C2223       C  0.42384885  0.48791565  0.83500090     0.06000
F2224       F  0.44873039  0.52561065  0.84988052    -0.19800
H2225       H  0.46459930  0.52371348  0.88965929     0.15900
F2226       F  0.44056232  0.45377410  0.90583181    -0.23500
H2227       H  0.42545798  0.45573099  0.86608268     0.17600
C2228       C  0.43422720  0.49348962  0.81489556     0.25600
C2229       C  0.42206986  0.49377671  0.79513239    -0.12100
C2230       C  0.39950940  0.48861431  0.79522601    -0.26100
C2231       C  0.38928678  0.48248014  0.81512485     0.36600
C2232       C  0.40140630  0.48199611  0.83478629    -0.27700
F2233       F  0.45600289  0.49875926  0.81437289    -0.19800
H2234       H  0.43003312  0.49882633  0.77988780     0.15900
F2235       F  0.36739170  0.47768491  0.81562366    -0.23500
H2236       H  0.39303992  0.47772906  0.85004858     0.17700
C2237       C  0.41247019  0.46637717  0.68376838    -0.27600
C2238       C  0.42465455  0.48409546  0.67488017     0.06000
C2239       C  0.42893519  0.50259681  0.68823630     0.25600
C2240       C  0.41918967  0.50435743  0.70905863    -0.12100
C2241       C  0.40516886  0.48766539  0.71700801    -0.26000
C2242       C  0.40283852  0.46807582  0.70478447     0.36400
C2243       C  0.43029030  0.48469005  0.65097695     0.06000
F2244       F  0.44148751  0.51957127  0.68058068    -0.19800
H2245       H  0.42139854  0.51945210  0.71839892     0.15900
F2246       F  0.38943058  0.45160985  0.71206366    -0.23500
H2247       H  0.40902333  0.45194336  0.67379820     0.17600
C2248       C  0.44193728  0.46744165  0.64075088     0.25600
C2249       C  0.44701124  0.46869440  0.61813051    -0.12100
C2250       C  0.44041683  0.48707551  0.60523112    -0.26100
C2251       C  0.42821239  0.50402838  0.61552897     0.36600
C2252       C  0.42329923  0.50277259  0.63807045    -0.27700
F2253       F  0.44893363  0.44971272  0.65273583    -0.19800
H2254       H  0.45641518  0.45537284  0.61079854     0.15900
F2255       F  0.42100745  0.52194997  0.60395850    -0.23500
H2256       H  0.41382609  0.51600434  0.64550188     0.17700
C2257       C  0.73759253  0.15370560  0.06220019    -0.27600
C2258       C  0.75079175  0.17242637  0.06605545     0.06000
C2259       C  0.76343479  0.18100965  0.04849096     0.25600
C2260       C  0.76285323  0.17101244  0.02764053    -0.12100
C2261       C  0.74972766  0.15221608  0.02379053    -0.26000
C2262       C  0.73703053  0.14367270  0.04133978     0.36400
C2263       C  0.75152495  0.18264417  0.08845495     0.06000
F2264       F  0.77610853  0.19928448  0.05136853    -0.19800
H2265       H  0.77300026  0.17783231  0.01455089     0.15900
F2266       F  0.72362544  0.12597248  0.03827110    -0.23500
H2267       H  0.72781739  0.14669102  0.07547670     0.17600
C2268       C  0.73198189  0.18821249  0.09971411     0.25600
C2269       C  0.73286879  0.19721080  0.12104564    -0.12100
C2270       C  0.75322668  0.20067275  0.13175886    -0.26100
C2271       C  0.77280915  0.19537886  0.12029194     0.36600
C2272       C  0.77188895  0.18651773  0.09891961    -0.27700
F2273       F  0.71199867  0.18523081  0.08995864    -0.19800
H2274       H  0.71753062  0.20120156  0.12931128     0.15900
F2275       F  0.79292228  0.19894434  0.12957392    -0.23500
H2276       H  0.78717089  0.18232024  0.09064480     0.17700
C2277       C  0.67282014  0.09295619  0.99065254    -0.27600
C2278       C  0.67454461  0.06984665  0.98913394     0.06000
C2279       C  0.69561518  0.06024902  0.98668676     0.25600
C2280       C  0.71450511  0.07371518  0.98549242    -0.12100
C2281       C  0.71252322  0.09684047  0.98635938    -0.26000
C2282       C  0.69155061  0.10633557  0.98908775     0.36400
C2283       C  0.65400606  0.05637977  0.98898131     0.06000
F2284       F  0.69787652  0.03795663  0.98530362    -0.19800
H2285       H  0.73055688  0.06617805  0.98308880     0.15900
F2286       F  0.68915225  0.12865710  0.98962118    -0.23500
H2287       H  0.65677216  0.10071702  0.99228052     0.17600
C2288       C  0.63846380  0.05849140  0.00608248     0.25600
C2289       C  0.61768831  0.04853465  0.00431680    -0.12100
C2290       C  0.61195834  0.03608780  0.98555009    -0.26100
C2291       C  0.62790384  0.03315334  0.96884785     0.36600
C2292       C  0.64869983  0.04326256  0.97058813    -0.27700
F2293       F  0.64332212  0.07043932  0.02441915    -0.19800
H2294       H  0.60597407  0.05070589  0.01765592     0.15900
F2295       F  0.62307121  0.02145314  0.95035117    -0.23500
H2296       H  0.66034239  0.04161951  0.95711064     0.17700
C2297       C  0.82127635  0.07448656  0.98585518    -0.27600
C2298       C  0.83372105  0.08335149  0.00336106     0.06000
C2299       C  0.82419269  0.09984119  0.01668216     0.25600
C2300       C  0.80303157  0.10796125  0.01181390    -0.12100
C2301       C  0.79131200  0.10000935  0.99345965    -0.26000
C2302       C  0.80032053  0.08282666  0.98083153     0.36400
C2303       C  0.85736123  0.07716940  0.00573420     0.06000
F2304       F  0.83601282  0.10940681  0.03316219    -0.19800
H2305       H  0.79646698  0.12157291  0.02138110     0.15900
F2306       F  0.78926204  0.07489984  0.96298763    -0.23500
H2307       H  0.82824549  0.06173710  0.97543742     0.17600
C2308       C  0.86642930  0.07010345  0.02602947     0.25600
C2309       C  0.88888996  0.06445785  0.02751663    -0.12100
C2310       C  0.90272122  0.06588253  0.00884205    -0.26100
C2311       C  0.89345936  0.07305470  0.98857756     0.36600
C2312       C  0.87112261  0.07856255  0.98715022    -0.27700
F2313       F  0.85347895  0.06808383  0.04422914    -0.19800
H2314       H  0.89541462  0.05883727  0.04327309     0.15900
F2315       F  0.90578038  0.07437991  0.96987654    -0.23500
H2316       H  0.86452909  0.08408496  0.97137586     0.17700
C2317       C  0.16631417  0.92347672  0.75223029    -0.27600
C2318       C  0.15589082  0.90676433  0.76453405     0.06000
C2319       C  0.13742001  0.91213200  0.77734646     0.25600
C2320       C  0.12945478  0.93377796  0.77774008    -0.12100
C2321       C  0.13998851  0.95095284  0.76582863    -0.26000
C2322       C  0.15837847  0.94526841  0.75262281     0.36400
C2323       C  0.16370721  0.88357027  0.76348348     0.06000
F2324       F  0.12623392  0.89613577  0.78849206    -0.19800
H2325       H  0.11422566  0.93655529  0.78656743     0.15900
F2326       F  0.16811069  0.96042632  0.73920983    -0.23500
H2327       H  0.18041423  0.91953908  0.74196867     0.17600
C2328       C  0.16480851  0.87234130  0.74321604     0.25600
C2329       C  0.17138571  0.85014262  0.74262986    -0.12100
C2330       C  0.17717119  0.83877601  0.76220615    -0.26100
C2331       C  0.17607301  0.85016325  0.78248353     0.36600
C2332       C  0.16930860  0.87227269  0.78303731    -0.27700
F2333       F  0.15897471  0.88266904  0.72407002    -0.19800
H2334       H  0.17209186  0.84189448  0.72677776     0.15900
F2335       F  0.18122800  0.83993325  0.80186611    -0.23500
H2336       H  0.16847590  0.88066282  0.79881436     0.17700
C2337       C  0.16904368  0.11334212  0.76856686    -0.27600
C2338       C  0.16891598  0.10140322  0.74874293     0.06000
C2339       C  0.17562828  0.11199737  0.72910856     0.25600
C2340       C  0.18310800  0.13394395  0.72959980    -0.12100
C2341       C  0.18361212  0.14583126  0.74958228    -0.26000
C2342       C  0.17613162  0.13530072  0.76905581     0.36400
C2343       C  0.16131730  0.07808590  0.74896488     0.06000
F2344       F  0.17549990  0.10096808  0.70959886    -0.19800
H2345       H  0.18859136  0.14160345  0.71433302     0.15900
F2346       F  0.17609995  0.14595354  0.78877637    -0.23500
H2347       H  0.16353051  0.10559922  0.78378916     0.17600
C2348       C  0.17081768  0.06258335  0.76360735     0.25600
C2349       C  0.16177569  0.04137778  0.76579381    -0.12100
C2350       C  0.14309636  0.03525113  0.75343455    -0.26100
C2351       C  0.13439820  0.05041306  0.73787111     0.36600
C2352       C  0.14341524  0.07162146  0.73575636    -0.27700
F2353       F  0.18869665  0.06809126  0.77599865    -0.19800
H2354       H  0.16894558  0.03001373  0.77771841     0.15900
F2355       F  0.11726303  0.04477840  0.72454344    -0.23500
H2356       H  0.13596565  0.08325439  0.72425897     0.17700
C2357       C  0.09392843  0.99586536  0.67707021    -0.27600
C2358       C  0.07220346  0.00375160  0.67552813     0.06000
C2359       C  0.06086358  0.00924664  0.69511486     0.25600
C2360       C  0.07113477  0.00652411  0.71583469    -0.12100
C2361       C  0.09258273  0.99782471  0.71726970    -0.26000
C2362       C  0.10403372  0.99289929  0.69762780     0.36400
C2363       C  0.06135954  0.00471540  0.65345376     0.06000
F2364       F  0.03989703  0.01716146  0.69419470    -0.19800
H2365       H  0.06213356  0.01054842  0.73075530     0.15900
F2366       F  0.12509745  0.98517615  0.69828031    -0.23500
H2367       H  0.10292614  0.99138999  0.66227432     0.17600
C2368       C  0.07145486  0.01562093  0.63550915     0.25600
C2369       C  0.06236484  0.01425289  0.61419475    -0.12100
C2370       C  0.04307116  0.00188545  0.61025839    -0.26100
C2371       C  0.03277429  0.99135575  0.62846322     0.36600
C2372       C  0.04184479  0.99284592  0.64972939    -0.27700
F2373       F  0.09015646  0.02758932  0.63861851    -0.19800
H2374       H  0.07057453  0.02277719  0.60073116     0.15900
F2375       F  0.01407148  0.97928703  0.62582704    -0.23500
H2376       H  0.03396535  0.98406971  0.66324197     0.17700
C2377       C  0.06354348  0.99831211  0.82798146    -0.27600
C2378       C  0.07183036  0.01603221  0.84037850     0.06000
C2379       C  0.08679357  0.03080206  0.83037933     0.25600
C2380       C  0.09483750  0.02660192  0.80901590    -0.12100
C2381       C  0.08797804  0.00769699  0.79748211    -0.26000
C2382       C  0.07146571  0.99419847  0.80670272     0.36400
C2383       C  0.06734884  0.01686168  0.86448580     0.06000
F2384       F  0.09521289  0.04798039  0.84204658    -0.19800
H2385       H  0.10782846  0.03696058  0.80233220     0.15900
F2386       F  0.06441395  0.97591723  0.79581814    -0.23500
H2387       H  0.05190266  0.98685407  0.83534504     0.17600
C2388       C  0.05684382  0.03502705  0.87430948     0.25600
C2389       C  0.05276839  0.03506257  0.89715392    -0.12100
C2390       C  0.05918949  0.01703857  0.91066695    -0.26100
C2391       C  0.07004119  0.99902454  0.90067945     0.36600
C2392       C  0.07392464  0.99898460  0.87787951    -0.27700
F2393       F  0.04994215  0.05239023  0.86174407    -0.19800
H2394       H  0.04421560  0.04910373  0.90418677     0.15900
F2395       F  0.07668867  0.98123731  0.91277585    -0.23500
H2396       H  0.08220545  0.98489695  0.87059406     0.17700
C2397       C  0.42070631  0.74184853  0.35638455    -0.27600
C2398       C  0.41639082  0.75384166  0.33689519     0.06000
C2399       C  0.43429794  0.76259956  0.32490961     0.25600
C2400       C  0.45602788  0.75921573  0.33230284    -0.12100
C2401       C  0.46031477  0.74729604  0.35190114    -0.26000
C2402       C  0.44232905  0.73861888  0.36386963     0.36400
C2403       C  0.39317935  0.75678076  0.32924245     0.06000
F2404       F  0.43082449  0.77409627  0.30586969    -0.19800
H2405       H  0.46950900  0.76629973  0.32290060     0.15900
F2406       F  0.44548206  0.72664509  0.38264139    -0.23500
H2407       H  0.40720579  0.73506545  0.36598840     0.17600
C2408       C  0.37905056  0.73842814  0.32754789     0.25600
C2409       C  0.35699310  0.74122212  0.32127772    -0.12100
C2410       C  0.34842996  0.76232705  0.31628392    -0.26100
C2411       C  0.36264222  0.78073205  0.31775551     0.36600
C2412       C  0.38476869  0.77792425  0.32423516    -0.27700
F2413       F  0.38671479  0.71765323  0.33147212    -0.19800
H2414       H  0.34667340  0.72666308  0.31994623     0.15900
F2415       F  0.35513343  0.80145638  0.31334579    -0.23500
H2416       H  0.39527579  0.79233700  0.32567474     0.17700
C2417       C  0.49900357  0.68302969  0.43591203    -0.27600
C2418       C  0.48591946  0.66682325  0.42573183     0.06000
C2419       C  0.47579938  0.67155324  0.40533400     0.25600
C2420       C  0.47975728  0.69178503  0.39472820    -0.12100
C2421       C  0.49360084  0.70765516  0.40443445    -0.26000
C2422       C  0.50284810  0.70334743  0.42534027     0.36400
C2423       C  0.48587817  0.64398604  0.43453081     0.06000
F2424       F  0.46356010  0.65593810  0.39490017    -0.27000
H2425       H  0.47326297  0.69444836  0.37821103     0.15900
F2426       F  0.51681582  0.71812461  0.43475211    -0.23500
H2427       H  0.50719524  0.67944284  0.45147908     0.17600
C2428       C  0.50378837  0.63003494  0.42999008     0.25600
C2429       C  0.50396719  0.60827245  0.43780455    -0.12100
C2430       C  0.48628830  0.59988988  0.45040455    -0.26100
C2431       C  0.46826698  0.61401863  0.45496326     0.36600
C2432       C  0.46809126  0.63586522  0.44695537    -0.27700
F2433       F  0.52105838  0.63746215  0.41774578    -0.19800
H2434       H  0.51806560  0.59797273  0.43390986     0.15900
F2435       F  0.45086183  0.60685442  0.46715521    -0.23500
H2436       H  0.45412845  0.64647988  0.45049938     0.17700
C2437       C  0.51074013  0.86057136  0.43822810    -0.27600
C2438       C  0.49527797  0.85385232  0.42234472     0.06000
C2439       C  0.47966369  0.86924357  0.41452186     0.25600
C2440       C  0.47965882  0.89104360  0.42244735    -0.12100
C2441       C  0.49544067  0.89805198  0.43810668    -0.26000
C2442       C  0.51096866  0.88239065  0.44598697     0.36400
C2443       C  0.49686598  0.83137420  0.41267756     0.06000
F2444       F  0.46452237  0.86320075  0.39909977    -0.19800
H2445       H  0.46743495  0.90252556  0.41607202     0.15900
F2446       F  0.52647036  0.88804740  0.46118858    -0.23500
H2447       H  0.52303496  0.84897161  0.44426298     0.17600
C2448       C  0.50615206  0.82864176  0.39163982     0.25600
C2449       C  0.50913197  0.80747678  0.38291843    -0.12100
C2450       C  0.50289783  0.78844982  0.39492371    -0.26100
C2451       C  0.49303557  0.79122363  0.41583683     0.36600
C2452       C  0.49026967  0.81253844  0.42469248    -0.27700
F2453       F  0.51284361  0.84650031  0.37972097    -0.19800
H2454       H  0.51627013  0.80601791  0.36657717     0.15900
F2455       F  0.48680596  0.77341280  0.42805949    -0.23500
H2456       H  0.48314176  0.81436429  0.44100523     0.17700
C2457       C  0.83918760  0.60382489  0.99480883    -0.27600
C2458       C  0.84359935  0.58601014  0.98059867     0.06000
C2459       C  0.82611860  0.57760732  0.96763610     0.25600
C2460       C  0.80477322  0.58642647  0.96948279    -0.12100
C2461       C  0.80045740  0.60409188  0.98384981    -0.26000
C2462       C  0.81799957  0.61296043  0.99623672     0.36400
C2463       C  0.86608422  0.57571875  0.98033632     0.06000
F2464       F  0.82964875  0.56102949  0.95299373    -0.19800
H2465       H  0.79157832  0.57952383  0.95955306     0.15900
F2466       F  0.81456332  0.62981556  0.01054551    -0.23500
H2467       H  0.85205362  0.61035541  0.00538339     0.17600
C2468       C  0.88541117  0.58876147  0.98068381     0.25600
C2469       C  0.90632050  0.57881026  0.98218672    -0.12100
C2470       C  0.90848772  0.55568294  0.98271080    -0.26100
C2471       C  0.88924544  0.54264072  0.98176796     0.36600
C2472       C  0.86836224  0.55256871  0.98088441    -0.27700
F2473       F  0.88415579  0.61113578  0.97913360    -0.19800
H2474       H  0.92088041  0.58920126  0.98249022     0.15900
F2475       F  0.89054758  0.52022393  0.98246917    -0.23500
H2476       H  0.85390469  0.54204812  0.98115539     0.17700
C2477       C  0.64847432  0.54845809  0.01418503    -0.27600
C2478       C  0.65619091  0.56051587  0.99586179     0.06000
C2479       C  0.64209061  0.56393883  0.97767344     0.25600
C2480       C  0.62036632  0.55632306  0.97832830    -0.12100
C2481       C  0.61221770  0.54515451  0.99709775    -0.26000
C2482       C  0.62672092  0.54081466  0.01487978     0.36400
C2483       C  0.67810200  0.57127516  0.99665437     0.06000
F2484       F  0.64890347  0.57568284  0.95974019    -0.19800
H2485       H  0.60976716  0.55969477  0.96424627     0.15900
F2486       F  0.61991671  0.52953326  0.03310274    -0.23500
H2487       H  0.65922576  0.54537217  0.02822142     0.17600
C2488       C  0.68360527  0.58492693  0.01452514     0.25600
C2489       C  0.70317331  0.59703145  0.01434774    -0.12100
C2490       C  0.71783233  0.59596315  0.99624519    -0.26100
C2491       C  0.71248797  0.58159385  0.97866263     0.36600
C2492       C  0.69288013  0.56940326  0.97893401    -0.27700
F2493       F  0.66936279  0.58770357  0.03162436    -0.19800
H2494       H  0.70581156  0.60783457  0.02817652     0.15900
F2495       F  0.72581477  0.58006522  0.96069444    -0.23500
H2496       H  0.68897279  0.55886794  0.96502084     0.17700
C2497       C  0.78691417  0.69347497  0.10397732    -0.27600
C2498       C  0.76982343  0.68207788  0.09339223     0.06000
C2499       C  0.75017420  0.67774014  0.10486376     0.25600
C2500       C  0.74762804  0.68476380  0.12669380    -0.12100
C2501       C  0.76464772  0.69628055  0.13753041    -0.26000
C2502       C  0.78440695  0.70063316  0.12584112     0.36400
C2503       C  0.77259739  0.67363383  0.07073568     0.06000
F2504       F  0.73352188  0.66645889  0.09495343    -0.19800
H2505       H  0.73225090  0.68117542  0.13508987     0.15900
F2506       F  0.80139695  0.71165643  0.13546065    -0.23500
H2507       H  0.80222406  0.69673560  0.09531739     0.17600
C2508       C  0.76381328  0.68524231  0.05253061     0.25600
C2509       C  0.76223841  0.67496214  0.03184844    -0.12100
C2510       C  0.76927223  0.65301814  0.02926510    -0.26100
C2511       C  0.77922111  0.64193323  0.04722634     0.36600
C2512       C  0.78101941  0.65227886  0.06775732    -0.27700
F2513       F  0.75529281  0.70583127  0.05520133    -0.19800
H2514       H  0.75393019  0.68345374  0.01836630     0.15900
F2515       F  0.78522697  0.62036811  0.04544787    -0.23500
H2516       H  0.78752282  0.64305128  0.08174716     0.17700
C2517       C  0.80672859  0.89000590  0.26238110    -0.27600
C2518       C  0.81443340  0.90036911  0.24299050     0.06000
C2519       C  0.81465382  0.88818272  0.22322202     0.25600
C2520       C  0.80777290  0.86607831  0.22301112    -0.12100
C2521       C  0.80034418  0.85552027  0.24243798    -0.26000
C2522       C  0.79970482  0.86788348  0.26217605     0.36400
C2523       C  0.82362858  0.92325032  0.24377741     0.06000
F2524       F  0.82136955  0.89771495  0.20399770    -0.19800
H2525       H  0.80821530  0.85722483  0.20748286     0.15900
F2526       F  0.79287107  0.85852277  0.28143960    -0.23500
H2527       H  0.80672256  0.89888062  0.27790582     0.17600
C2528       C  0.81233074  0.94061778  0.25439457     0.25600
C2529       C  0.82229188  0.96145280  0.25666429    -0.12100
C2530       C  0.84355207  0.96533749  0.24830593    -0.26100
C2531       C  0.85462806  0.94820316  0.23733542     0.36600
C2532       C  0.84469177  0.92746755  0.23496516    -0.27700
F2533       F  0.79185326  0.93734688  0.26288963    -0.19800
H2534       H  0.81377725  0.97432176  0.26569825     0.15900
F2535       F  0.87575175  0.95098595  0.23042950    -0.23500
H2536       H  0.85398468  0.91431259  0.22720075     0.17700
C2537       C  0.61658643  0.75773671  0.30826812    -0.27600
C2538       C  0.60508763  0.73763767  0.30730226     0.06000
C2539       C  0.61515465  0.71949480  0.29679942     0.25600
C2540       C  0.63657260  0.72141651  0.28808290    -0.12100
C2541       C  0.64839865  0.74142142  0.28970626    -0.26000
C2542       C  0.63788810  0.75969793  0.29964921     0.36400
C2543       C  0.58314604  0.73590246  0.31829451     0.06000
F2544       F  0.60425369  0.69999071  0.29482139    -0.19800
H2545       H  0.64399101  0.70712773  0.28030403     0.15900
F2546       F  0.64816563  0.77956407  0.30130918    -0.23500
H2547       H  0.60922560  0.77192931  0.31628753     0.17600
C2548       C  0.57922293  0.71980108  0.33464539     0.25600
C2549       C  0.55986235  0.72039700  0.34729815    -0.12100
C2550       C  0.54375573  0.73709006  0.34401372    -0.26100
C2551       C  0.54750659  0.75266167  0.32692228     0.36600
C2552       C  0.56690125  0.75204796  0.31434165    -0.27700
F2553       F  0.59480657  0.70434378  0.33951585    -0.19800
H2554       H  0.55844940  0.70816725  0.36021268     0.15900
F2555       F  0.53277961  0.76917266  0.32297570    -0.23500
H2556       H  0.56955800  0.76468015  0.30185285     0.17700
C2557       C  0.69733407  0.61087385  0.21561495    -0.27600
C2558       C  0.68512764  0.60345894  0.23398840     0.06000
C2559       C  0.67925121  0.61880873  0.25034367     0.25600
C2560       C  0.68578497  0.64084739  0.24865345    -0.12100
C2561       C  0.69839523  0.64842994  0.23062043    -0.26000
C2562       C  0.70402200  0.63313637  0.21392337     0.36400
C2563       C  0.67811640  0.57996936  0.23650541     0.06000
F2564       F  0.66677921  0.61256508  0.26794367    -0.19800
H2565       H  0.68093895  0.65200300  0.26174449     0.15900
F2566       F  0.71614514  0.63951354  0.19614331    -0.23500
H2567       H  0.70199547  0.59934913  0.20277543     0.17600
C2568       C  0.66511089  0.56944596  0.22033136     0.25600
C2569       C  0.65452011  0.54934967  0.22523134    -0.12100
C2570       C  0.65663482  0.53965204  0.24631250    -0.26100
C2571       C  0.67120084  0.54915269  0.26168601     0.36600
C2572       C  0.68194063  0.56899532  0.25672129    -0.27700
F2573       F  0.66104956  0.57949174  0.20060306    -0.19800
H2574       H  0.64328828  0.54231898  0.21319363     0.15900
F2575       F  0.67406695  0.53987486  0.28200125    -0.23500
H2576       H  0.69226942  0.57653142  0.26924904     0.17700
C2577       C  0.92813214  0.78070735  0.15589396    -0.27600
C2578       C  0.92136233  0.76587843  0.17245838     0.06000
C2579       C  0.93653857  0.75029400  0.18080885     0.25600
C2580       C  0.95766121  0.74867867  0.17162583    -0.12100
C2581       C  0.96387758  0.76249657  0.15398867    -0.26000
C2582       C  0.94913195  0.77887810  0.14650385     0.36400
C2583       C  0.89772237  0.76462205  0.17844641     0.06000
F2584       F  0.93046277  0.73581761  0.19692480    -0.19800
H2585       H  0.96861916  0.73558805  0.17717780     0.15900
F2586       F  0.95395123  0.79130141  0.12841685    -0.23500
H2587       H  0.91650696  0.79249957  0.14895611     0.17600
C2588       C  0.88636013  0.78303960  0.18674894     0.25600
C2589       C  0.86370199  0.78168522  0.19116294    -0.12100
C2590       C  0.85191607  0.76202521  0.18709741    -0.26100
C2591       C  0.86343268  0.74368205  0.17848627     0.36600
C2592       C  0.88606592  0.74503483  0.17434189    -0.27700
F2593       F  0.89724545  0.80220330  0.19086300    -0.19800
H2594       H  0.85541344  0.79605207  0.19785016     0.15900
F2595       F  0.85297636  0.72433324  0.17409827    -0.23500
H2596       H  0.89449912  0.73080531  0.16751634     0.17700
C2597       C  0.82430898  0.90481948  0.50050386    -0.27600
C2598       C  0.82467112  0.92784288  0.49683224     0.06000
C2599       C  0.80442628  0.93868208  0.49242884     0.25600
C2600       C  0.78459450  0.92663776  0.49121727    -0.12100
C2601       C  0.78452689  0.90362747  0.49433793    -0.26000
C2602       C  0.80452549  0.89286178  0.49928163     0.36400
C2603       C  0.84622715  0.94010829  0.49687917     0.06000
F2604       F  0.80378241  0.96090409  0.48917800    -0.19800
H2605       H  0.76938599  0.93516987  0.48706291     0.15900
F2606       F  0.80499838  0.87058836  0.50223909    -0.23500
H2607       H  0.83951992  0.89586564  0.50355102     0.17600
C2608       C  0.86235944  0.93605639  0.51327704     0.25600
C2609       C  0.88283375  0.94687371  0.51260174    -0.12100
C2610       C  0.88783139  0.96220463  0.49573644    -0.26100
C2611       C  0.87162807  0.96645310  0.47943110     0.36600
C2612       C  0.85120459  0.95544428  0.47999200    -0.27700
F2613       F  0.85825945  0.92187740  0.53025754    -0.19800
H2614       H  0.89479833  0.94328819  0.52548342     0.15900
F2615       F  0.87566793  0.98075176  0.46252908    -0.23500
H2616       H  0.83942427  0.95858605  0.46683752     0.17700
C2617       C  0.67339232  0.92907299  0.48349998    -0.27600
C2618       C  0.66121703  0.92311498  0.50236751     0.06000
C2619       C  0.67158343  0.91016163  0.51884656     0.25600
C2620       C  0.69307562  0.90194349  0.51556047    -0.12100
C2621       C  0.70449271  0.90651626  0.49583580    -0.26000
C2622       C  0.69480377  0.92098312  0.48028286     0.36400
C2623       C  0.63716169  0.92841830  0.50330703     0.06000
F2624       F  0.66029660  0.90391979  0.53721757    -0.19800
H2625       H  0.70009184  0.89063514  0.52764293     0.15900
F2626       F  0.70562839  0.92628625  0.46133616    -0.23500
H2627       H  0.66589997  0.93927622  0.47073970     0.17600
C2628       C  0.62776601  0.94004279  0.52106210     0.25600
C2629       C  0.60509153  0.94512392  0.52105955    -0.12100
C2630       C  0.59126948  0.93871739  0.50338267    -0.26100
C2631       C  0.60077834  0.92669582  0.48583715     0.36600
C2632       C  0.62337848  0.92175730  0.48584955    -0.27700
F2633       F  0.64062809  0.94720649  0.53798798    -0.19800
H2634       H  0.59846490  0.95454645  0.53472097     0.15900
F2635       F  0.58838522  0.91983238  0.46843696    -0.23500
H2636       H  0.63019746  0.91260788  0.47208419     0.17700
C2637       C  0.72185133  0.81215656  0.37132813    -0.27600
C2638       C  0.73897558  0.82607301  0.37858682     0.06000
C2639       C  0.75632122  0.83102043  0.36400251     0.25600
C2640       C  0.75625466  0.82269953  0.34252162    -0.12100
C2641       C  0.73901973  0.80903056  0.33494612    -0.26000
C2642       C  0.72178322  0.80371189  0.34970834     0.36400
C2643       C  0.73890837  0.83539848  0.40130775     0.06000
F2644       F  0.77369611  0.84351812  0.37068714    -0.19800
H2645       H  0.76996244  0.82694280  0.33183550     0.15900
F2646       F  0.70494820  0.79032965  0.34339972    -0.23500
H2647       H  0.70838224  0.80802573  0.38236176     0.17600
C2648       C  0.74165240  0.85818499  0.40466170     0.25600
C2649       C  0.74275870  0.86670681  0.42606451    -0.12100
C2650       C  0.74110413  0.85292850  0.44491912    -0.26100
C2651       C  0.73757606  0.83000326  0.44136171     0.36600
C2652       C  0.73658216  0.82152099  0.41980823    -0.27700
F2653       F  0.74289820  0.87233935  0.38719309    -0.19800
H2654       H  0.74486968  0.88439357  0.42796743     0.15900
F2655       F  0.73457467  0.81546562  0.45814793    -0.23500
H2656       H  0.73422772  0.80390982  0.41755848     0.17700
C2657       C  0.89565193  0.49206933  0.67140968    -0.27600
C2658       C  0.91468264  0.50503801  0.66820112     0.06000
C2659       C  0.92442295  0.51522657  0.68666719     0.25600
C2660       C  0.91506237  0.51289293  0.70764693    -0.12100
C2661       C  0.89603572  0.49995885  0.71094489    -0.26000
C2662       C  0.88649219  0.48936787  0.69254958     0.36400
C2663       C  0.92425935  0.50807144  0.64568831     0.06000
F2664       F  0.94332896  0.52709212  0.68456170    -0.19800
H2665       H  0.92275808  0.52140808  0.72135914     0.15900
F2666       F  0.86878945  0.47583211  0.69497282    -0.23500
H2667       H  0.88776870  0.48406588  0.65748645     0.17600
C2668       C  0.92747628  0.48994320  0.63152125     0.25600
C2669       C  0.93646432  0.49310654  0.61043209    -0.12100
C2670       C  0.94284598  0.51427263  0.60313900    -0.26100
C2671       C  0.93984248  0.53238298  0.61731432     0.36600
C2672       C  0.93042783  0.52929515  0.63825573    -0.27700
F2673       F  0.92255283  0.46906896  0.63825705    -0.19800
H2674       H  0.93885304  0.47885650  0.59989645     0.15900
F2675       F  0.94536355  0.55313993  0.61070189    -0.23500
H2676       H  0.92776025  0.54360099  0.64863276     0.17700
C2677       C  0.90054133  0.49150172  0.83620117    -0.27600
C2678       C  0.92371491  0.49157475  0.83666281     0.06000
C2679       C  0.93519284  0.49302040  0.81653063     0.25600
C2680       C  0.92368898  0.49454419  0.79643557    -0.12100
C2681       C  0.90034749  0.49461796  0.79582619    -0.26000
C2682       C  0.88900568  0.49309733  0.81618804     0.36400
C2683       C  0.93565059  0.49067010  0.85822523     0.06000
F2684       F  0.95760580  0.49356143  0.81626548    -0.19800
H2685       H  0.93350500  0.49569866  0.78166002     0.15900
F2686       F  0.86658645  0.49298384  0.81674803    -0.23500
H2687       H  0.89127411  0.49009546  0.85145349     0.17600
C2688       C  0.92959509  0.50486090  0.87554449     0.25600
C2689       C  0.94040592  0.50371189  0.89595891    -0.12100
C2690       C  0.95763543  0.48848314  0.89970675    -0.26100
C2691       C  0.96390782  0.47439915  0.88225474     0.36600
C2692       C  0.95296753  0.47551823  0.86177371    -0.27700
F2693       F  0.91344973  0.52020810  0.87261917    -0.19800
H2694       H  0.93524439  0.51493427  0.90887434     0.15900
F2695       F  0.98029295  0.45928087  0.88500014    -0.23500
H2696       H  0.95779535  0.46425372  0.84876531     0.17700
C2697       C  0.82629309  0.37699180  0.71938666    -0.27600
C2698       C  0.81334937  0.39465614  0.72719075     0.06000
C2699       C  0.79043302  0.39143576  0.72968469     0.25600
C2700       C  0.78100767  0.37072943  0.72521960    -0.12100
C2701       C  0.79432072  0.35285775  0.71874559    -0.26000
C2702       C  0.81700320  0.35622297  0.71561059     0.36400
C2703       C  0.82432641  0.41563001  0.73398259     0.06000
F2704       F  0.77736172  0.40782905  0.73760477    -0.19800
H2705       H  0.76347539  0.36835026  0.72785438     0.15900
F2706       F  0.83020068  0.33936678  0.70893747    -0.23500
H2707       H  0.84383984  0.37913365  0.71668946     0.17600
C2708       C  0.84371773  0.41478344  0.74677818     0.25600
C2709       C  0.85480755  0.43411219  0.75239805    -0.12100
C2710       C  0.84657025  0.45507430  0.74629445    -0.26100
C2711       C  0.82682167  0.45605647  0.73390291     0.36600
C2712       C  0.81593446  0.43648129  0.72769877    -0.27700
F2713       F  0.85188770  0.39519005  0.75426456    -0.19800
H2714       H  0.87014353  0.43243214  0.76146788     0.15900
F2715       F  0.81768305  0.47577774  0.72820416    -0.23500
H2716       H  0.80102694  0.43763306  0.71782807     0.17700
C2717       C  0.61764982  0.25735901  0.65524700    -0.27600
C2718       C  0.60173405  0.24106029  0.65956705     0.06000
C2719       C  0.60785014  0.22215429  0.67177700     0.25600
C2720       C  0.62935203  0.21991340  0.67998041    -0.12100
C2721       C  0.64529721  0.23632414  0.67596032    -0.26000
C2722       C  0.63925998  0.25503642  0.66323181     0.36400
C2723       C  0.57864645  0.24394063  0.65182990     0.06000
F2724       F  0.59279335  0.20618453  0.67643889    -0.19800
H2725       H  0.63347045  0.20534947  0.68966314     0.15900
F2726       F  0.65396219  0.27147455  0.65907962    -0.23500
H2727       H  0.61328544  0.27197152  0.64574132     0.17600
C2728       C  0.56622314  0.26266263  0.65783871     0.25600
C2729       C  0.54387957  0.26425742  0.65194714    -0.12100
C2730       C  0.53376459  0.24747689  0.63957488    -0.26100
C2731       C  0.54639486  0.22910932  0.63299803     0.36600
C2732       C  0.56856841  0.22734364  0.63920475    -0.27700
F2733       F  0.57550501  0.27904937  0.66998244    -0.19800
H2734       H  0.53449317  0.27866694  0.65689529     0.15900
F2735       F  0.53712925  0.21243685  0.62124582    -0.23500
H2736       H  0.57788714  0.21287438  0.63429232     0.17700
C2737       C  0.74529127  0.32980285  0.60153751    -0.27600
C2738       C  0.74159960  0.31572540  0.58345351     0.06000
C2739       C  0.73462968  0.29391158  0.58748422     0.25600
C2740       C  0.73117593  0.28647996  0.60911387    -0.12100
C2741       C  0.73485582  0.30048355  0.62727022    -0.26000
C2742       C  0.74198988  0.32231078  0.62326404     0.36400
C2743       C  0.74406476  0.32419900  0.56048115     0.06000
F2744       F  0.73160562  0.27959402  0.57051411    -0.19800
H2745       H  0.72604879  0.26949539  0.61164912     0.15900
F2746       F  0.74540783  0.33653008  0.64024383    -0.23500
H2747       H  0.75039204  0.34676605  0.59879598     0.17600
C2748       C  0.72667972  0.32202171  0.54520329     0.25600
C2749       C  0.72810028  0.33194932  0.52437921    -0.12100
C2750       C  0.74644064  0.34499723  0.51856960    -0.26100
C2751       C  0.76444281  0.34606504  0.53326634     0.36600
C2752       C  0.76320047  0.33573627  0.55407421    -0.27700
F2753       F  0.70749932  0.31196736  0.55104674    -0.19800
H2754       H  0.71397277  0.33095542  0.51338851     0.15900
F2755       F  0.78234811  0.35864306  0.52842586    -0.23500
H2756       H  0.77683480  0.33749292  0.56556467     0.17700
C2757       C  0.87059716  0.24805157  0.81126476    -0.27600
C2758       C  0.88805024  0.26122201  0.80367120     0.06000
C2759       C  0.88489060  0.27463909  0.78490808     0.25600
C2760       C  0.86429637  0.27535095  0.77430263    -0.12100
C2761       C  0.84642405  0.26274807  0.78227520    -0.26000
C2762       C  0.84997176  0.24874596  0.80076924     0.36400
C2763       C  0.90903462  0.26187104  0.81624179     0.06000
F2764       F  0.90172650  0.28713503  0.77694143    -0.19800
H2765       H  0.86229194  0.28603090  0.75999599     0.15900
F2766       F  0.83351910  0.23589722  0.80900736    -0.23500
H2767       H  0.87282035  0.23759623  0.82571767     0.17600
C2768       C  0.91408341  0.28018568  0.82943409     0.25600
C2769       C  0.93328163  0.28037508  0.84238780    -0.12100
C2770       C  0.94806811  0.26225734  0.84240382    -0.26100
C2771       C  0.94298187  0.24410739  0.82860241     0.36600
C2772       C  0.92360873  0.24388641  0.81587904    -0.27700
F2773       F  0.89998950  0.29764713  0.83034026    -0.19800
H2774       H  0.93590484  0.29470552  0.85254725     0.15900
F2775       F  0.95657169  0.22625015  0.82781485    -0.23500
H2776       H  0.91989597  0.22958810  0.80580290     0.17700
C2777       C  0.74536789  0.17061353  0.85638991    -0.27600
C2778       C  0.75840361  0.17956909  0.87337377     0.06000
C2779       C  0.77240132  0.19746275  0.86850361     0.25600
C2780       C  0.77300326  0.20637570  0.84712639    -0.12100
C2781       C  0.75979306  0.19758881  0.83009491    -0.26000
C2782       C  0.74598376  0.17945650  0.83498081     0.36400
C2783       C  0.75747900  0.16979803  0.89592075     0.06000
F2784       F  0.78592242  0.20598984  0.88424201    -0.19800
H2785       H  0.78396466  0.22016563  0.84392178     0.15900
F2786       F  0.73287629  0.17032817  0.81923448    -0.23500
H2787       H  0.73445826  0.15682312  0.85979447     0.17600
C2788       C  0.75372976  0.18297294  0.91464411     0.25600
C2789       C  0.75229081  0.17331297  0.93570847    -0.12100
C2790       C  0.75447117  0.15022786  0.93860176    -0.26100
C2791       C  0.75797886  0.13716555  0.91958560     0.36600
C2792       C  0.75956822  0.14686844  0.89864989    -0.27700
F2793       F  0.75064024  0.20513174  0.91250961    -0.19800
H2794       H  0.74900813  0.18417345  0.94938852     0.15900
F2795       F  0.75991985  0.11483564  0.92123397    -0.23500
H2796       H  0.76244407  0.13638378  0.88445387     0.17700
C2797       C  0.56603289  0.97932648  0.81281013    -0.27600
C2798       C  0.58071303  0.97484418  0.83036731     0.06000
C2799       C  0.60346929  0.97372222  0.82607540     0.25600
C2800       C  0.61149153  0.97893070  0.80510304    -0.12100
C2801       C  0.59699295  0.98514598  0.78802683    -0.26000
C2802       C  0.57414053  0.98446107  0.79166515     0.36400
C2803       C  0.57256661  0.97313908  0.85339191     0.06000
F2804       F  0.61798787  0.96836770  0.84240518    -0.19800
H2805       H  0.62917856  0.97908436  0.80238489     0.15900
F2806       F  0.55984860  0.99018186  0.77527293    -0.23500
H2807       H  0.54841205  0.98003806  0.81578171     0.17600
C2808       C  0.58100408  0.98721340  0.86983100     0.25600
C2809       C  0.57334927  0.98571961  0.89156656    -0.12100
C2810       C  0.55698752  0.97029831  0.89739056    -0.26100
C2811       C  0.54851466  0.95620568  0.88081924     0.36600
C2812       C  0.55622023  0.95774545  0.85904216    -0.27700
F2813       F  0.59621587  0.00290278  0.86471397    -0.19800
H2814       H  0.57999858  0.99698012  0.90376465     0.15900
F2815       F  0.53282006  0.94088541  0.88554470    -0.23500
H2816       H  0.54953896  0.94678788  0.84658196     0.17700
C2817       C  0.55155284  0.97765415  0.63375880    -0.27600
C2818       C  0.55927732  0.99726633  0.64350776     0.06000
C2819       C  0.55975349  0.01674176  0.63054030     0.25600
C2820       C  0.55238050  0.01651405  0.60856900    -0.12100
C2821       C  0.54509464  0.99680438  0.59878002    -0.26000
C2822       C  0.54474030  0.97732143  0.61161817     0.36400
C2823       C  0.56821886  0.99684514  0.66654301     0.06000
F2824       F  0.56836866  0.03577993  0.63864088    -0.19800
H2825       H  0.55303827  0.03167330  0.59895245     0.15900
F2826       F  0.53743715  0.95800143  0.60291201    -0.23500
H2827       H  0.55089040  0.96245491  0.64329977     0.17600
C2828       C  0.56364189  0.01390564  0.68169024     0.25600
C2829       C  0.57451002  0.01453592  0.70214794    -0.12100
C2830       C  0.58950813  0.99783451  0.70822041    -0.26100
C2831       C  0.59278690  0.97991870  0.69392004     0.36600
C2832       C  0.58237759  0.97955403  0.67323063    -0.27700
F2833       F  0.54881543  0.03005338  0.67672166    -0.19800
H2834       H  0.57161722  0.02836868  0.71310227     0.15900
F2835       F  0.60735997  0.96363674  0.69918175    -0.23500
H2836       H  0.58622609  0.96619139  0.66200692     0.17700
C2837       C  0.67077794  0.06542577  0.72856518    -0.27600
C2838       C  0.67080090  0.07986973  0.74661024     0.06000
C2839       C  0.66054674  0.07331928  0.76634070     0.25600
C2840       C  0.64940660  0.05313670  0.76762071    -0.12100
C2841       C  0.64824904  0.03886126  0.74919929    -0.26000
C2842       C  0.66000154  0.04498413  0.72992382     0.36400
C2843       C  0.68071373  0.10212900  0.74464088     0.06000
F2844       F  0.66043716  0.08693981  0.78414420    -0.19800
H2845       H  0.64150853  0.04941039  0.78310999     0.15900
F2846       F  0.66023990  0.03157230  0.71197255    -0.23500
H2847       H  0.67892153  0.07012166  0.71330768     0.17600
C2848       C  0.69836554  0.10834191  0.75830384     0.25600
C2849       C  0.70672532  0.12984609  0.75728576    -0.12100
C2850       C  0.69754734  0.14571792  0.74275946    -0.26100
C2851       C  0.67993268  0.13931170  0.72888731     0.36600
C2852       C  0.67173973  0.11765722  0.72979363    -0.27700
F2853       F  0.70754084  0.09356972  0.77262086    -0.19800
H2854       H  0.72031480  0.13409585  0.76813787     0.15900
F2855       F  0.67047955  0.15389062  0.71456650    -0.23500
H2856       H  0.65800294  0.11310997  0.71924197     0.17700
C2857       C  0.81754314  0.61277141  0.72443241    -0.27600
C2858       C  0.80766384  0.59681620  0.73827263     0.06000
C2859       C  0.78837809  0.60276612  0.74988740     0.25600
C2860       C  0.78007050  0.62437462  0.74861726    -0.12100
C2861       C  0.79033890  0.64044060  0.73529229    -0.26000
C2862       C  0.80885442  0.63422608  0.72268686     0.36400
C2863       C  0.81848858  0.57479290  0.74187365     0.06000
F2864       F  0.77746843  0.58769889  0.76248914    -0.19800
H2865       H  0.76549136  0.62854968  0.75808722     0.15900
F2866       F  0.81925009  0.64914990  0.70948205    -0.23500
H2867       H  0.83254998  0.60892845  0.71553217     0.17600
C2868       C  0.82797649  0.56278668  0.72431911     0.25600
C2869       C  0.84003295  0.54333782  0.72852480    -0.12100
C2870       C  0.84269666  0.53524909  0.75023523    -0.26100
C2871       C  0.83207448  0.54655661  0.76757646     0.36600
C2872       C  0.82049359  0.56617716  0.76344094    -0.27700
F2873       F  0.82572916  0.56986895  0.70308299    -0.19800
H2874       H  0.84792511  0.53506928  0.71479724     0.15900
F2875       F  0.83286982  0.53875206  0.78866189    -0.23500
H2876       H  0.81361809  0.57498719  0.77737752     0.17700
C2877       C  0.71867756  0.82336731  0.60774844    -0.27600
C2878       C  0.73768777  0.82073227  0.59474596     0.06000
C2879       C  0.75546575  0.80841864  0.60332440     0.25600
C2880       C  0.75432819  0.79923051  0.62460744    -0.12100
C2881       C  0.73548690  0.80215625  0.63793787    -0.26000
C2882       C  0.71752533  0.81427757  0.62911919     0.36400
C2883       C  0.73903810  0.83120227  0.57246714     0.06000
F2884       F  0.77383856  0.80497936  0.59097151    -0.19800
H2885       H  0.76836472  0.78986123  0.63067251     0.15900
F2886       F  0.69886087  0.81751963  0.64107543    -0.23500
H2887       H  0.70480256  0.83283768  0.60144920     0.17600
C2888       C  0.72315419  0.82664492  0.55610298     0.25600
C2889       C  0.72450694  0.83676386  0.53525020    -0.12100
C2890       C  0.74147610  0.85186858  0.53043243    -0.26100
C2891       C  0.75734349  0.85647472  0.54676949     0.36600
C2892       C  0.75619550  0.84608318  0.56753566    -0.27700
F2893       F  0.70657534  0.81208999  0.56015204    -0.19800
H2894       H  0.71213888  0.83296374  0.52286112     0.15900
F2895       F  0.77427418  0.87053074  0.54246577    -0.23500
H2896       H  0.76859933  0.84982441  0.57990379     0.17700
C2897       C  0.60367486  0.76333648  0.80663897    -0.27600
C2898       C  0.59334010  0.74314499  0.81176993     0.06000
C2899       C  0.60528984  0.72340112  0.80911322     0.25600
C2900       C  0.62728950  0.72395539  0.80200886    -0.12100
C2901       C  0.63780349  0.74416024  0.79709072    -0.26000
C2902       C  0.62560223  0.76390998  0.79926581     0.36400
C2903       C  0.57077995  0.74292511  0.82146584     0.06000
F2904       F  0.59595111  0.70360436  0.81413962    -0.19800
H2905       H  0.63609269  0.70845771  0.80026125     0.15900
F2906       F  0.63493752  0.78383520  0.79478301    -0.23500
H2907       H  0.59475181  0.77875140  0.80854056     0.17600
C2908       C  0.56640018  0.75506594  0.84066522     0.25600
C2909       C  0.54564147  0.75411499  0.85063336    -0.12100
C2910       C  0.52851682  0.74125293  0.84167607    -0.26100
C2911       C  0.53284044  0.72913907  0.82224065     0.36600
C2912       C  0.55380816  0.72997016  0.81231198    -0.27700
F2913       F  0.58250725  0.76725310  0.85040603    -0.19800
H2914       H  0.54323701  0.76333780  0.86546663     0.15900
F2915       F  0.51729413  0.71566449  0.81336305    -0.23500
H2916       H  0.55686867  0.72034280  0.79757267     0.17700
C2917       C  0.67535925  0.87874984  0.72132449    -0.27600
C2918       C  0.66717149  0.88744361  0.74123497     0.06000
C2919       C  0.66598636  0.87337069  0.75986750     0.25600
C2920       C  0.67235732  0.85117017  0.75837261    -0.12100
C2921       C  0.68041583  0.84239011  0.73842387    -0.26000
C2922       C  0.68210309  0.85660612  0.71991619     0.36400
C2923       C  0.65906969  0.91078692  0.74223632     0.06000
F2924       F  0.65906843  0.88112135  0.77973231    -0.19800
H2925       H  0.67117125  0.84088884  0.77305079     0.15900
F2926       F  0.69008228  0.84918402  0.70033898    -0.23500
H2927       H  0.67617555  0.88901439  0.70661566     0.17600
C2928       C  0.67081011  0.92838503  0.73238007     0.25600
C2929       C  0.66237227  0.95001524  0.73287171    -0.12100
C2930       C  0.64228663  0.95472537  0.74355017    -0.26100
C2931       C  0.63101203  0.93716554  0.75405933     0.36600
C2932       C  0.63909296  0.91555197  0.75296241    -0.27700
F2933       F  0.69067207  0.92481489  0.72265782    -0.19800
H2934       H  0.67158084  0.96306985  0.72476860     0.15900
F2935       F  0.61256196  0.94071562  0.76621066    -0.23500
H2936       H  0.62953878  0.90244164  0.76056311     0.17700
C2937       C  0.73592163  0.67588771  0.92191318    -0.27600
C2938       C  0.74990368  0.66769266  0.90527365     0.06000
C2939       C  0.76696149  0.65292132  0.91145542     0.25600
C2940       C  0.76919347  0.64585683  0.93347987    -0.12100
C2941       C  0.75431082  0.65300408  0.94966821    -0.26000
C2942       C  0.73789584  0.66842720  0.94381654     0.36400
C2943       C  0.74626677  0.67407867  0.88157549     0.06000
F2944       F  0.78051772  0.64403136  0.89600547    -0.19800
H2945       H  0.78154798  0.63350139  0.93756875     0.15900
F2946       F  0.72317172  0.67552109  0.95914115    -0.23500
H2947       H  0.72304424  0.68768151  0.91785629     0.17600
C2948       C  0.72490769  0.67440332  0.87210179     0.25600
C2949       C  0.72183705  0.68036814  0.84980235    -0.12100
C2950       C  0.73997179  0.68560410  0.83631779    -0.26100
C2951       C  0.76129196  0.68521915  0.84578384     0.36600
C2952       C  0.76429759  0.67973131  0.86811304    -0.27700
F2953       F  0.70701901  0.66833382  0.88417785    -0.19800
H2954       H  0.70528847  0.68048854  0.84295747     0.15900
F2955       F  0.77928658  0.69086814  0.83364766    -0.23500
H2956       H  0.78083495  0.68017031  0.87495582     0.17700
C2957       C  0.86562793  0.71797861  0.66701788    -0.27600
C2958       C  0.87718268  0.73809204  0.66575261     0.06000
C2959       C  0.86553892  0.75795952  0.66906051     0.25600
C2960       C  0.84301567  0.75762557  0.67412292    -0.12100
C2961       C  0.83154085  0.73751240  0.67618416    -0.26000
C2962       C  0.84307570  0.71761346  0.67236855     0.36400
C2963       C  0.90114479  0.73851994  0.66030662     0.06000
F2964       F  0.87588591  0.77778534  0.66710285    -0.19800
H2965       H  0.83465760  0.77320449  0.67696475     0.15900
F2966       F  0.83258634  0.69782100  0.67370256    -0.23500
H2967       H  0.87418935  0.70250423  0.66421535     0.17600
C2968       C  0.91618370  0.75041273  0.67349628     0.25600
C2969       C  0.93794440  0.75367680  0.66638452    -0.12100
C2970       C  0.94517237  0.74480543  0.64627130    -0.26100
C2971       C  0.93065122  0.73166428  0.63382100     0.36600
C2972       C  0.90883386  0.72847812  0.64086117    -0.27700
F2973       F  0.90959049  0.75954917  0.69286650    -0.19800
H2974       H  0.94884630  0.76410760  0.67599932     0.15900
F2975       F  0.93701478  0.72351958  0.61393532    -0.23500
H2976       H  0.89756917  0.71928746  0.63043437     0.17700
loop_ 
_geom_bond_atom_site_label_1 
_geom_bond_atom_site_label_2 
_geom_bond_distance 
_geom_bond_site_symmetry_2 
_ccdc_geom_bond_type 
O1           Mg3   2.140       .  S
O1           Mg9   2.146       .  S
O1           C36   1.238       .  S
C2           O15   1.240       .  S
C2           O39   1.274       .  A
C2           H41   1.081       .  S
Mg3          O32   2.154       .  S
Mg3          O47   2.313       .  S
Mg3          O43   2.276       .  S
Mg3          O14   2.291       .  S
O4          Mg46   2.142       .  S
O4          Mg29   2.140       .  S
O4           C25   1.238       .  S
O5           C36   1.272       .  A
O5          Mg29   2.302       .  S
C6            O8   1.274       .  A
C6           O20   1.278       .  A
C6         C2861   1.487       .  S
O7           C35   1.272       .  A
O7           Mg9   2.300       .  S
O8          Mg40   2.279       .  S
Mg9          O15   2.153       .  S
Mg9          O23   2.290       .  S
Mg9          O11   2.327       .  S
C10          O48   1.273       .  A
C10          O16   1.281       .  A
C10        C2950   1.489       .  S
O11          C18   1.278       .  A
H12          C25   1.081       .  S
C13          O27   1.240       .  S
C13          O28   1.273       .  A
C13          H38   1.081       .  S
O14          C37   1.270       .  A
O15         Mg29   2.147       .  S
O16         Mg46   2.352       .  S
C17          O30   1.275       .  A
C17          O22   1.278       .  A
C17        C2901   1.490       .  S
C18          O45   1.275       .  A
C18        C2921   1.493       .  S
Mg19         O26   2.127       .  S
Mg19         O27   2.140       .  S
Mg19         O20   2.324       .  S
Mg19         O21   2.301       .  S
Mg19         O48   2.259       .  S
O21          C25   1.272       .  A
O22         Mg29   2.326       .  S
O23          C42   1.276       .  A
O24          C44   1.277       .  A
O24         Mg40   2.319       .  S
O26         Mg40   2.138       .  S
O26          C37   1.237       .  S
O27         Mg46   2.142       .  S
O28         Mg40   2.305       .  S
Mg29         O45   2.271       .  S
O30         Mg46   2.276       .  S
H31          C36   1.081       .  S
O32         Mg40   2.144       .  S
O32          C35   1.239       .  S
H33          C35   1.081       .  S
H34          C37   1.081       .  S
O39         Mg46   2.311       .  S
C42          O47   1.278       .  A
C42        C2881   1.494       .  S
O43          C44   1.275       .  A
C44        C2961   1.488       .  S
C49          C50   1.541       .  S
C49          C55   1.532       .  S
C49          C53   1.546   1_545  S
C49        C2841   1.535       .  S
C50          H57   1.081       .  S
C50          C51   1.363   1_545  D
C51          C52   1.536       .  S
C51        C2801   1.475       .  S
C52          C56   1.540   1_565  S
C52          C54   1.543       .  S
C52          H58   1.108       .  S
C53          H59   1.085       .  S
C53          C54   1.375       .  D
C54        C2930   1.498       .  S
C55          H60   1.087       .  S
C55          C56   1.360       .  D
C56        C2830   1.481   1_545  S
O61         Mg63   2.126       .  S
O61         Mg69   2.152       .  S
O61          C96   1.238       .  S
C62          O75   1.238       .  S
C62          O99   1.271       .  A
C62         H101   1.081       .  S
Mg63         O92   2.143       .  S
Mg63        O107   2.299       .  S
Mg63        O103   2.251       .  S
Mg63         O74   2.303       .  S
O64        Mg106   2.142       .  S
O64         Mg89   2.139       .  S
O64          C85   1.238       .  S
O65          C96   1.270       .  A
O65         Mg89   2.292       .  S
C66          O68   1.272       .  A
C66          O80   1.279       .  A
C66        C2850   1.488       .  S
O67          C95   1.271       .  A
O67         Mg69   2.298       .  S
O68        Mg100   2.247       .  S
Mg69         O75   2.133       .  S
Mg69         O83   2.286       .  S
Mg69         O71   2.307       .  S
C70         O108   1.275       .  A
C70          O76   1.276       .  A
C70        C2721   1.486       .  S
O71          C78   1.277       .  A
H72          C85   1.081       .  S
C73          O87   1.237       .  S
C73          O88   1.270       .  A
C73          H98   1.081       .  S
O74          C97   1.272       .  A
O75         Mg89   2.158       .  S
O76        Mg106   2.306       .  S
C77          O90   1.273       .  A
C77          O82   1.277       .  A
C77        C2741   1.484       .  S
C78         O105   1.274       .  A
C78        C2701   1.474       .  S
Mg79         O86   2.142       .  S
Mg79         O87   2.143       .  S
Mg79         O80   2.333       .  S
Mg79         O81   2.302       .  S
Mg79        O108   2.278       .  S
O81          C85   1.272       .  A
O82         Mg89   2.316       .  S
O83         C102   1.276       .  A
O84         C104   1.275       .  A
O84        Mg100   2.310       .  S
O86        Mg100   2.147       .  S
O86          C97   1.238       .  S
O87        Mg106   2.135       .  S
O88        Mg100   2.298       .  S
Mg89        O105   2.272       .  S
O90        Mg106   2.257       .  S
H91          C96   1.081       .  S
O92        Mg100   2.133       .  S
O92          C95   1.237       .  S
H93          C95   1.081       .  S
H94          C97   1.081       .  S
O99        Mg106   2.295       .  S
C102        O107   1.275       .  A
C102       C2761   1.491       .  S
O103        C104   1.271       .  A
C104       C2781   1.486       .  S
C109        C110   1.529       .  S
C109        C115   1.532       .  S
C109        C113   1.544       .  S
C109       C2681   1.537       .  S
C110        H117   1.085       .  S
C110        C111   1.368       .  D
C111        C112   1.549       .  S
C111       C2710   1.498       .  S
C112        C116   1.549       .  S
C112        C114   1.543       .  S
C112        H118   1.106       .  S
C113        H119   1.080       .  S
C113        C114   1.369       .  D
C114       C2661   1.493       .  S
C115        H120   1.085       .  S
C115        C116   1.370       .  D
C116       C2870   1.497       .  S
C121        C122   1.537       .  S
C121        C127   1.533       .  S
C121        C125   1.548       .  S
C121       C2650   1.540       .  S
C122        H129   1.087       .  S
C122        C123   1.364       .  D
C123        C124   1.548       .  S
C123       C2601   1.487       .  S
C124        C128   1.546       .  S
C124        C126   1.542       .  S
C124        H130   1.111       .  S
C125        H131   1.078       .  S
C125        C126   1.369       .  D
C126       C2890   1.486       .  S
C127        H132   1.087       .  S
C127        C128   1.365       .  D
C128       C2621   1.490       .  S
O133       Mg135   2.150       .  S
O133       Mg141   2.143       .  S
O133        C168   1.239       .  S
C134        O147   1.238       .  S
C134        O171   1.272       .  A
C134        H173   1.081       .  S
Mg135       O164   2.144       .  S
Mg135       O179   2.350       .  S
Mg135       O175   2.279       .  S
Mg135       O146   2.304       .  S
O136       Mg178   2.141       .  S
O136       Mg161   2.143       .  S
O136        C157   1.238       .  S
O137        C168   1.273       .  A
O137       Mg161   2.308       .  S
C138        O140   1.272       .  A
C138        O152   1.276       .  A
C138       C2590   1.487       .  S
O139        C167   1.270       .  A
O139       Mg141   2.299       .  S
O140       Mg172   2.260       .  S
Mg141       O147   2.149       .  S
Mg141       O155   2.260       .  S
Mg141       O143   2.333       .  S
C142        O180   1.274       .  A
C142        O148   1.278       .  A
C142       C2521   1.494       .  S
O143        C150   1.278       .  A
H144        C157   1.081       .  S
C145        O159   1.238       .  S
C145        O160   1.270       .  A
C145        H170   1.081       .  S
O146        C169   1.272       .  A
O147       Mg161   2.142       .  S
O148       Mg178   2.331       .  S
C149        O162   1.271       .  A
C149        O154   1.280       .  A
C149       C2641   1.491       .  S
C150        O177   1.273       .  A
C150       C2541   1.494       .  S
Mg151       O158   2.142       .  S
Mg151       O159   2.142       .  S
Mg151       O152   2.308       .  S
Mg151       O153   2.299       .  S
Mg151       O180   2.273       .  S
O153        C157   1.271       .  A
O154       Mg161   2.346       .  S
O155        C174   1.275       .  A
O156        C176   1.274       .  A
O156       Mg172   2.295       .  S
O158       Mg172   2.147       .  S
O158        C169   1.238       .  S
O159       Mg178   2.118       .  S
O160       Mg172   2.291       .  S
Mg161       O177   2.264       .  S
O162       Mg178   2.238       .  S
H163        C168   1.081       .  S
O164       Mg172   2.138       .  S
O164        C167   1.236       .  S
H165        C167   1.081       .  S
H166        C169   1.081       .  S
O171       Mg178   2.307       .  S
C174        O179   1.280       .  A
C174       C2561   1.495       .  S
O175        C176   1.276       .  A
C176       C2501   1.487       .  S
C181        C182   1.530       .  S
C181        C187   1.538   1_556  S
C181        C185   1.543       .  S
C181       C2490   1.529       .  S
C182        H189   1.087       .  S
C182        C183   1.361       .  D
C183        C184   1.546       .  S
C183       C2941   1.481       .  S
C184        C188   1.541   1_556  S
C184        C186   1.542       .  S
C184        H190   1.110       .  S
C185        H191   1.086       .  S
C185        C186   1.371       .  D
C186       C2461   1.488       .  S
C187        H192   1.081       .  S
C187        C188   1.360       .  D
C188       C2510   1.475       .  S
C193        C194   1.540       .  S
C193        C199   1.535       .  S
C193        C197   1.547       .  S
C193       C2550   1.541       .  S
C194        H201   1.082       .  S
C194        C195   1.362       .  D
C195        C196   1.540       .  S
C195       C2421   1.479       .  S
C196        C200   1.545       .  S
C196        C198   1.539       .  S
C196        H202   1.108       .  S
C197        H203   1.086       .  S
C197        C198   1.373       .  D
C198       C2401   1.491       .  S
C199        H204   1.086       .  S
C199        C200   1.368       .  D
C200       C2450   1.497       .  S
C205        C206   1.528       .  S
C205        C211   1.533       .  S
C205        C209   1.548       .  S
C205       C2321   1.531       .  S
C206        H213   1.087       .  S
C206        C207   1.363       .  D
C207        C208   1.542   1_565  S
C207       C2361   1.484       .  S
C208        C212   1.543   1_545  S
C208        C210   1.543       .  S
C208        H214   1.110       .  S
C209        H215   1.085       .  S
C209        C210   1.375   1_565  D
C210       C2350   1.490       .  S
C211        H216   1.085       .  S
C211        C212   1.360       .  D
C212       C2381   1.482   1_565  S
C217        C218   1.533       .  S
C217        C223   1.534       .  S
C217        C221   1.549       .  S
C217       C2790   1.532       .  S
C218        H225   1.087       .  S
C218        C219   1.363       .  D
C219        C220   1.543       .  S
C219       C2281   1.480       .  S
C220        C224   1.537       .  S
C220        C222   1.544   1_556  S
C220        H226   1.110   1_556  S
C221        H227   1.081       .  S
C221        C222   1.372   1_556  D
C222       C2261   1.493       .  S
C223        H228   1.087       .  S
C223        C224   1.362       .  D
C224       C2301   1.475       .  S
C229        C230   1.528       .  S
C229        C235   1.537       .  S
C229        C233   1.547       .  S
C229       C2181   1.533       .  S
C230        H237   1.087       .  S
C230        C231   1.363       .  D
C231        C232   1.539       .  S
C231       C2241   1.480       .  S
C232        C236   1.538       .  S
C232        C234   1.544       .  S
C232        H238   1.110       .  S
C233        H239   1.083       .  S
C233        C234   1.374       .  D
C234       C2201   1.490       .  S
C235        H240   1.086       .  S
C235        C236   1.361       .  D
C236       C2230   1.472       .  S
C241        C242   1.523       .  S
C241        C247   1.529       .  S
C241        C245   1.551       .  S
C241       C2150   1.529       .  S
C242        H249   1.087       .  S
C242        C243   1.360       .  D
C243        C244   1.548       .  S
C243       C2750   1.486       .  S
C244        C248   1.545       .  S
C244        C246   1.542       .  S
C244        H250   1.111       .  S
C245        H251   1.083       .  S
C245        C246   1.375       .  D
C246       C2161   1.484       .  S
C247        H252   1.087       .  S
C247        C248   1.364       .  D
C248       C2121   1.486       .  S
C253        C254   1.530       .  S
C253        C259   1.534       .  S
C253        C257   1.552       .  S
C253       C2090   1.530       .  S
C254        H261   1.087       .  S
C254        C255   1.362       .  D
C255        C256   1.539       .  S
C255       C2570   1.484       .  S
C256        C260   1.539       .  S
C256        C258   1.539       .  S
C256        H262   1.109       .  S
C257        H263   1.082       .  S
C257        C258   1.376       .  D
C258       C2061   1.489       .  S
C259        H264   1.087       .  S
C259        C260   1.362       .  D
C260       C2101   1.480       .  S
C265        C266   1.535       .  S
C265        C271   1.532       .  S
C265        C269   1.542       .  S
C265       C2001   1.536       .  S
C266        H273   1.081       .  S
C266        C267   1.360       .  D
C267        C268   1.541       .  S
C267       C1981   1.475       .  S
C268        C272   1.543       .  S
C268        C270   1.547       .  S
C268        H274   1.101       .  S
C269        H275   1.084       .  S
C269        C270   1.378       .  D
C270       C2030   1.507       .  S
C271        H276   1.086       .  S
C271        C272   1.365       .  D
C272       C2041   1.493       .  S
C277        C278   1.532       .  S
C277        C283   1.530   1_655  S
C277        C281   1.552   1_655  S
C277       C1941   1.533       .  S
C278        H285   1.087       .  S
C278        C279   1.357       .  D
C279        C280   1.540   1_655  S
C279       C2581   1.475       .  S
C280        C284   1.542       .  S
C280        C282   1.543       .  S
C280        H286   1.108       .  S
C281        H287   1.081   1_455  S
C281        C282   1.379       .  D
C282       C1970   1.497       .  S
C283        H288   1.087       .  S
C283        C284   1.363       .  D
C284       C1921   1.488       .  S
O289       Mg291   2.129       .  S
O289       Mg297   2.145       .  S
O289        C324   1.238       .  S
C290        O303   1.237       .  S
C290        O327   1.271       .  A
C290        H329   1.081       .  S
Mg291       O320   2.141       .  S
Mg291       O335   2.324       .  S
Mg291       O331   2.262       .  S
Mg291       O302   2.303       .  S
O292       Mg334   2.145       .  S
O292       Mg317   2.134       .  S
O292        C313   1.237       .  S
O293        C324   1.271       .  A
O293       Mg317   2.297       .  S
C294        O296   1.272       .  A
C294        O308   1.277       .  A
C294       C1881   1.486       .  S
O295        C323   1.272       .  A
O295       Mg297   2.298       .  S
O296       Mg328   2.257       .  S
Mg297       O303   2.139       .  S
Mg297       O311   2.260       .  S
Mg297       O299   2.307       .  S
C298        O336   1.275       .  A
C298        O304   1.277       .  A
C298       C1861   1.491       .  S
O299        C306   1.275       .  A
H300        C313   1.081       .  S
C301        O315   1.240       .  S
C301        O316   1.274       .  A
C301        H326   1.081       .  S
O302        C325   1.272       .  A
O303       Mg317   2.142       .  S
O304       Mg334   2.317       .  S
C305        O318   1.275       .  A
C305        O310   1.276       .  A
C305       C1930   1.481       .  S
C306        O333   1.273       .  A
C306       C1910   1.487       .  S
Mg307       O314   2.150       .  S
Mg307       O315   2.152       .  S
Mg307       O308   2.312       .  S
Mg307       O309   2.296       .  S
Mg307       O336   2.285       .  S
O309        C313   1.271       .  A
O310       Mg317   2.311       .  S
O311        C330   1.272       .  A
O312        C332   1.280       .  A
O312       Mg328   2.340       .  S
O314       Mg328   2.143       .  S
O314        C325   1.237       .  S
O315       Mg334   2.145       .  S
O316       Mg328   2.309       .  S
Mg317       O333   2.265       .  S
O318       Mg334   2.282       .  S
H319        C324   1.081       .  S
O320       Mg328   2.133       .  S
O320        C323   1.238       .  S
H321        C323   1.081       .  S
H322        C325   1.081       .  S
O327       Mg334   2.302       .  S
C330        O335   1.278       .  A
C330       C2050   1.488       .  S
O331        C332   1.274       .  A
C332       C2410   1.490       .  S
C337        C338   1.541       .  S
C337        C343   1.531       .  S
C337        C341   1.544   1_556  S
C337       C1801   1.539       .  S
C338        H345   1.081       .  S
C338        C339   1.359   1_556  D
C339        C340   1.541       .  S
C339       C1821   1.481       .  S
C340        C344   1.547   1_554  S
C340        C342   1.544       .  S
C340        H346   1.110       .  S
C341        H347   1.085       .  S
C341        C342   1.374       .  D
C342       C1870   1.493       .  S
C343        H348   1.086       .  S
C343        C344   1.367       .  D
C344       C1841   1.493   1_556  S
C349        C350   1.537       .  S
C349        C355   1.540       .  S
C349        C353   1.545       .  S
C349       C1781   1.540       .  S
C350        H357   1.086       .  S
C350        C351   1.364       .  D
C351        C352   1.539       .  S
C351       C1761   1.483       .  S
C352        C356   1.536       .  S
C352        C354   1.535       .  S
C352        H358   1.111       .  S
C353        H359   1.086       .  S
C353        C354   1.371       .  D
C354       C2730   1.482       .  S
C355        H360   1.076       .  S
C355        C356   1.362       .  D
C356       C1750   1.479       .  S
O361       Mg363   2.142       .  S
O361       Mg369   2.146       .  S
O361        C396   1.237       .  S
C362        O375   1.239       .  S
C362        O399   1.272       .  A
C362        H401   1.081       .  S
Mg363       O392   2.145       .  S
Mg363       O407   2.310       .  S
Mg363       O403   2.261       .  S
Mg363       O374   2.296       .  S
O364       Mg406   2.140       .  S
O364       Mg389   2.114       .  S
O364        C385   1.237       .  S
O365        C396   1.270       .  A
O365       Mg389   2.297       .  S
C366        O368   1.274       .  A
C366        O380   1.278       .  A
C366       C2341   1.487       .  S
O367        C395   1.272       .  A
O367       Mg369   2.307       .  S
O368       Mg400   2.261       .  S
Mg369       O375   2.134       .  S
Mg369       O383   2.254       .  S
Mg369       O371   2.342       .  S
C370        O408   1.274       .  A
C370        O376   1.276       .  A
C370       C1721   1.484       .  S
O371        C378   1.279       .  A
H372        C385   1.081       .  S
C373        O387   1.237       .  S
C373        O388   1.271       .  A
C373        H398   1.081       .  S
O374        C397   1.270       .  A
O375       Mg389   2.144       .  S
O376       Mg406   2.298       .  S
C377        O390   1.275       .  A
C377        O382   1.273       .  A
C377       C1790   1.490       .  S
C378        O405   1.269       .  A
C378       C2210   1.486       .  S
Mg379       O386   2.137       .  S
Mg379       O387   2.152       .  S
Mg379       O380   2.322       .  S
Mg379       O381   2.294       .  S
Mg379       O408   2.266       .  S
O381        C385   1.270       .  A
O382       Mg389   2.288       .  S
O383        C402   1.273       .  A
O384        C404   1.277       .  A
O384       Mg400   2.323       .  S
O386       Mg400   2.146       .  S
O386        C397   1.237       .  S
O387       Mg406   2.142       .  S
O388       Mg400   2.297       .  S
Mg389       O405   2.232       .  S
O390       Mg406   2.291       .  S
H391        C396   1.081       .  S
O392       Mg400   2.143       .  S
O392        C395   1.238       .  S
H393        C395   1.081       .  S
H394        C397   1.081       .  S
O399       Mg406   2.300       .  S
C402        O407   1.276       .  A
C402       C1701   1.485       .  S
O403        C404   1.274       .  A
C404       C1681   1.487       .  S
C409        C410   1.545       .  S
C409        C415   1.537       .  S
C409        C413   1.546       .  S
C409       C2770   1.538       .  S
C410        H417   1.081       .  S
C410        C411   1.365       .  D
C411        C412   1.535   1_655  S
C411       C1641   1.477   1_655  S
C412        C416   1.536   1_455  S
C412        C414   1.538       .  S
C412        H418   1.109       .  S
C413        H419   1.086       .  S
C413        C414   1.372   1_655  D
C414       C1690   1.490       .  S
C415        H420   1.086       .  S
C415        C416   1.364       .  D
C416       C1670   1.483       .  S
O421       Mg423   2.133       .  S
O421       Mg429   2.143       .  S
O421        C456   1.237       .  S
C422        O435   1.237       .  S
C422        O459   1.271       .  A
C422        H461   1.081       .  S
Mg423       O452   2.150       .  S
Mg423       O467   2.334       .  S
Mg423       O463   2.272       .  S
Mg423       O434   2.305       .  S
O424       Mg466   2.145       .  S
O424       Mg449   2.140       .  S
O424        C445   1.236       .  S
O425        C456   1.271       .  A
O425       Mg449   2.298       .  S
C426        O428   1.273       .  A
C426        O440   1.275       .  A
C426       C2110   1.483       .  S
O427        C455   1.272       .  A
O427       Mg429   2.302       .  S
O428       Mg460   2.265       .  S
Mg429       O435   2.148       .  S
Mg429       O443   2.277       .  S
Mg429       O431   2.323       .  S
C430        O468   1.275       .  A
C430        O436   1.277       .  A
C430       C2130   1.494       .  S
O431        C438   1.278       .  A
H432        C445   1.081       .  S
C433        O447   1.238       .  S
C433        O448   1.272       .  A
C433        H458   1.081       .  S
O434        C457   1.272       .  A
O435       Mg449   2.148       .  S
O436       Mg466   2.318       .  S
C437        O450   1.272       .  A
C437        O442   1.278       .  A
C437       C1601   1.490       .  S
C438        O465   1.274       .  A
C438       C1590   1.489       .  S
Mg439       O446   2.148       .  S
Mg439       O447   2.147       .  S
Mg439       O440   2.303       .  S
Mg439       O441   2.295       .  S
Mg439       O468   2.284       .  S
O441        C445   1.270       .  A
O442       Mg449   2.328       .  S
O443        C462   1.275       .  A
O444        C464   1.276       .  A
O444       Mg460   2.311       .  S
O446       Mg460   2.150       .  S
O446        C457   1.238       .  S
O447       Mg466   2.136       .  S
O448       Mg460   2.303       .  S
Mg449       O465   2.264       .  S
O450       Mg466   2.251       .  S
H451        C456   1.081       .  S
O452       Mg460   2.146       .  S
O452        C455   1.238       .  S
H453        C455   1.081       .  S
H454        C457   1.081       .  S
O459       Mg466   2.298       .  S
C462        O467   1.280       .  A
C462       C2270   1.493       .  S
O463        C464   1.275       .  A
C464       C1621   1.488       .  S
C469        C470   1.541   1_545  S
C469        C475   1.534       .  S
C469        C473   1.540       .  S
C469       C1561   1.532       .  S
C470        H477   1.081       .  S
C470        C471   1.360       .  D
C471        C472   1.543   1_565  S
C471       C2530   1.480       .  S
C472        C476   1.545       .  S
C472        C474   1.540       .  S
C472        H478   1.110       .  S
C473        H479   1.086       .  S
C473        C474   1.368       .  D
C474       C1541   1.484       .  S
C475        H480   1.087       .  S
C475        C476   1.367       .  D
C476       C1581   1.489       .  S
C481        C482   1.535       .  S
C481        C487   1.529       .  S
C481        C485   1.545       .  S
C481       C1530   1.528       .  S
C482        H489   1.087       .  S
C482        C483   1.365       .  D
C483        C484   1.541   1_455  S
C483       C1501   1.482   1_455  S
C484        C488   1.541       .  S
C484        C486   1.541       .  S
C484        H490   1.111       .  S
C485        H491   1.082       .  S
C485        C486   1.370   1_455  D
C486       C1610   1.481       .  S
C487        H492   1.087       .  S
C487        C488   1.360   1_455  D
C488       C1490   1.477       .  S
O493       Mg495   2.123       .  S
O493       Mg501   2.139       .  S
O493        C528   1.237       .  S
C494        O507   1.237       .  S
C494        O531   1.271       .  A
C494        H533   1.081       .  S
Mg495       O524   2.146       .  S
Mg495       O539   2.335       .  S
Mg495       O535   2.253       .  S
Mg495       O506   2.307       .  S
O496       Mg538   2.145       .  S
O496       Mg521   2.140       .  S
O496        C517   1.237       .  S
O497        C528   1.270       .  A
O497       Mg521   2.291       .  S
C498        O500   1.274       .  A
C498        O512   1.275       .  A
C498       C1381   1.482       .  S
O499        C527   1.273       .  A
O499       Mg501   2.304       .  S
O500       Mg532   2.286       .  S
Mg501       O507   2.150       .  S
Mg501       O515   2.296       .  S
Mg501       O503   2.325       .  S
C502        O540   1.272       .  A
C502        O508   1.276       .  A
C502       C1521   1.484       .  S
O503        C510   1.280       .  A
H504        C517   1.081       .  S
C505        O519   1.239       .  S
C505        O520   1.275       .  A
C505        H530   1.081       .  S
O506        C529   1.273       .  A
O507       Mg521   2.153       .  S
O508       Mg538   2.311       .  S
C509        O522   1.275       .  A
C509        O514   1.277       .  A
C509       C1410   1.491       .  S
C510        O537   1.274       .  A
C510       C1441   1.489       .  S
Mg511       O518   2.142       .  S
Mg511       O519   2.148       .  S
Mg511       O512   2.308       .  S
Mg511       O513   2.302       .  S
Mg511       O540   2.265       .  S
O513        C517   1.271       .  A
O514       Mg521   2.316       .  S
O515        C534   1.276       .  A
O516        C536   1.278       .  A
O516       Mg532   2.328       .  S
O518       Mg532   2.139       .  S
O518        C529   1.238       .  S
O519       Mg538   2.156       .  S
O520       Mg532   2.316       .  S
Mg521       O537   2.267       .  S
O522       Mg538   2.288       .  S
H523        C528   1.081       .  S
O524       Mg532   2.149       .  S
O524        C527   1.239       .  S
H525        C527   1.081       .  S
H526        C529   1.081       .  S
O531       Mg538   2.300       .  S
C534        O539   1.280       .  A
C534       C1421   1.501       .  S
O535        C536   1.273       .  A
C536       C1470   1.482       .  S
C541        C542   1.539       .  S
C541        C547   1.532   1_556  S
C541        C545   1.544       .  S
C541       C1361   1.536       .  S
C542        H549   1.081       .  S
C542        C543   1.362       .  D
C543        C544   1.537   1_556  S
C543       C1710   1.477       .  S
C544        C548   1.535       .  S
C544        C546   1.547       .  S
C544        H550   1.106       .  S
C545        H551   1.085   1_556  S
C545        C546   1.378   1_556  D
C546       C1350   1.501       .  S
C547        H552   1.087       .  S
C547        C548   1.360       .  D
C548       C1461   1.478       .  S
C553        C554   1.539       .  S
C553        C559   1.532   1_545  S
C553        C557   1.535       .  S
C553       C1301   1.525       .  S
C554        H561   1.079       .  S
C554        C555   1.366       .  D
C555        C556   1.545       .  S
C555       C1450   1.489       .  S
C556        C560   1.539   1_545  S
C556        C558   1.539       .  S
C556        H562   1.111       .  S
C557        H563   1.086       .  S
C557        C558   1.365       .  D
C558       C1321   1.478       .  S
C559        H564   1.087       .  S
C559        C560   1.361       .  D
C560       C1890   1.475       .  S
O565       Mg567   2.131   1_455  S
O565       Mg573   2.141       .  S
O565        C600   1.238       .  S
C566        O579   1.239       .  S
C566        O603   1.273   1_455  A
C566        H605   1.081       .  S
Mg567       O596   2.153       .  S
Mg567       O611   2.296       .  S
Mg567       O607   2.246       .  S
Mg567       O578   2.296       .  S
O568       Mg610   2.138   1_455  S
O568       Mg593   2.134   1_565  S
O568        C589   1.238       .  S
O569        C600   1.272       .  A
O569       Mg593   2.300       .  S
C570        O572   1.276       .  A
C570        O584   1.279       .  A
C570       C2610   1.497       .  S
O571        C599   1.275       .  A
O571       Mg573   2.312   1_655  S
O572       Mg604   2.296   1_565  S
Mg573       O579   2.135       .  S
Mg573       O587   2.288       .  S
Mg573       O575   2.332       .  S
C574        O612   1.272       .  A
C574        O580   1.278       .  A
C574       C1261   1.485       .  S
O575        C582   1.280       .  A
H576        C589   1.081       .  S
C577        O591   1.237   1_545  S
C577        O592   1.271       .  A
C577        H602   1.081       .  S
O578        C601   1.271   1_545  A
O579       Mg593   2.147       .  S
O580       Mg610   2.321       .  S
C581        O594   1.274   1_545  A
C581        O586   1.281       .  A
C581       C2370   1.494       .  S
C582        O609   1.276       .  A
C582       C1290   1.491       .  S
Mg583       O590   2.126       .  S
Mg583       O591   2.146       .  S
Mg583       O584   2.328       .  S
Mg583       O585   2.297   1_655  S
Mg583       O612   2.251       .  S
O585        C589   1.271       .  A
O586       Mg593   2.340       .  S
O587        C606   1.274       .  A
O588        C608   1.276       .  A
O588       Mg604   2.308       .  S
O590       Mg604   2.143   1_565  S
O590        C601   1.237       .  S
O591       Mg610   2.146       .  S
O592       Mg604   2.299       .  S
Mg593       O609   2.277       .  S
O594       Mg610   2.266   1_455  S
H595        C600   1.081       .  S
O596       Mg604   2.154       .  S
O596        C599   1.240       .  S
H597        C599   1.081       .  S
H598        C601   1.081       .  S
O603       Mg610   2.299   1_545  S
C606        O611   1.274   1_455  A
C606       C1510   1.491       .  S
O607        C608   1.270       .  A
C608       C1570   1.478       .  S
O613       Mg615   2.143   1_554  S
O613       Mg621   2.141       .  S
O613        C648   1.238       .  S
C614        O627   1.239   1_545  S
C614        O651   1.274   1_455  A
C614        H653   1.081       .  S
Mg615       O644   2.144   1_565  S
Mg615       O659   2.336       .  S
Mg615       O655   2.285       .  S
Mg615       O626   2.301       .  S
O616       Mg658   2.142       .  S
O616       Mg641   2.137   1_545  S
O616        C637   1.236       .  S
O617        C648   1.272   1_655  A
O617       Mg641   2.303       .  S
C618        O620   1.273       .  A
C618        O632   1.278   1_455  A
C618       C1661   1.485   1_455  S
O619        C647   1.272       .  A
O619       Mg621   2.304   1_545  S
O620       Mg652   2.272       .  S
Mg621       O627   2.148       .  S
Mg621       O635   2.277       .  S
Mg621       O623   2.325       .  S
C622        O660   1.273   1_554  A
C622        O628   1.279       .  A
C622       C2310   1.490       .  S
O623        C630   1.278       .  A
H624        C637   1.081   1_565  S
C625        O639   1.238   1_455  S
C625        O640   1.272       .  A
C625        H650   1.081   1_455  S
O626        C649   1.272   1_465  A
O627       Mg641   2.145   1_455  S
O628       Mg658   2.334       .  S
C629        O642   1.274       .  A
C629        O634   1.278   1_545  A
C629       C1550   1.490       .  S
C630        O657   1.274   1_455  A
C630       C1961   1.492       .  S
Mg631       O638   2.129       .  S
Mg631       O639   2.150   1_556  S
Mg631       O632   2.324       .  S
Mg631       O633   2.298       .  S
Mg631       O660   2.256       .  S
O633        C637   1.270   1_556  A
O634       Mg641   2.323       .  S
O635        C654   1.274       .  A
O636        C656   1.275       .  A
O636       Mg652   2.303       .  S
O638       Mg652   2.149   1_655  S
O638        C649   1.238       .  S
O639       Mg658   2.142       .  S
O640       Mg652   2.296   1_554  S
Mg641       O657   2.270       .  S
O642       Mg658   2.267       .  S
H643        C648   1.081   1_556  S
O644       Mg652   2.143       .  S
O644        C647   1.238   1_556  S
H645        C647   1.081       .  S
H646        C649   1.081       .  S
O651       Mg658   2.306       .  S
C654        O659   1.280   1_554  A
C654       C1850   1.488       .  S
O655        C656   1.276   1_565  A
C656       C2390   1.492       .  S
O661       Mg663   2.123       .  S
O661       Mg669   2.137       .  S
O661        C696   1.237       .  S
C662        O675   1.239   1_565  S
C662        O699   1.273       .  A
C662        H701   1.081       .  S
Mg663       O692   2.143   1_545  S
Mg663       O707   2.330       .  S
Mg663       O703   2.235       .  S
Mg663       O674   2.305       .  S
O664       Mg706   2.147   1_545  S
O664       Mg689   2.138       .  S
O664        C685   1.238       .  S
O665        C696   1.270       .  A
O665       Mg689   2.295       .  S
C666        O668   1.277       .  A
C666        O680   1.279       .  A
C666       C2441   1.497       .  S
O667        C695   1.273   1_545  A
O667       Mg669   2.306       .  S
O668       Mg700   2.296       .  S
Mg669       O675   2.146       .  S
Mg669       O683   2.289       .  S
Mg669       O671   2.326       .  S
C670        O708   1.276       .  A
C670        O676   1.279       .  A
C670       C2630   1.498       .  S
O671        C678   1.278       .  A
H672        C685   1.081       .  S
C673        O687   1.239       .  S
C673        O688   1.273       .  A
C673        H698   1.081       .  S
O674        C697   1.273   1_545  A
O675       Mg689   2.152       .  S
O676       Mg706   2.334       .  S
C677        O690   1.274       .  A
C677        O682   1.276   1_565  A
C677       C2821   1.482       .  S
C678        O705   1.274       .  A
C678       C1770   1.488       .  S
Mg679       O686   2.145       .  S
Mg679       O687   2.141       .  S
Mg679       O680   2.327       .  S
Mg679       O681   2.300       .  S
Mg679       O708   2.284       .  S
O681        C685   1.272   1_565  A
O682       Mg689   2.308       .  S
O683        C702   1.276       .  A
O684        C704   1.280       .  A
O684       Mg700   2.338       .  S
O686       Mg700   2.144       .  S
O686        C697   1.239       .  S
O687       Mg706   2.143       .  S
O688       Mg700   2.304       .  S
Mg689       O705   2.263       .  S
O690       Mg706   2.271       .  S
H691        C696   1.081       .  S
O692       Mg700   2.156       .  S
O692        C695   1.239       .  S
H693        C695   1.081       .  S
H694        C697   1.081       .  S
O699       Mg706   2.302       .  S
C702        O707   1.278       .  A
C702       C1241   1.498       .  S
O703        C704   1.270   1_545  A
C704       C1330   1.485   1_565  S
C709        C710   1.535       .  S
C709        C715   1.532       .  S
C709        C713   1.538       .  S
C709       C1730   1.534       .  S
C710        H717   1.080       .  S
C710        C711   1.359       .  D
C711        C712   1.546       .  S
C711       C1250   1.483       .  S
C712        C716   1.546       .  S
C712        C714   1.555       .  S
C712        H718   1.105       .  S
C713        H719   1.084       .  S
C713        C714   1.378       .  D
C714       C1401   1.510       .  S
C715        H720   1.087       .  S
C715        C716   1.361       .  D
C716       C1281   1.489       .  S
O721       Mg723   2.131       .  S
O721       Mg729   2.143   1_556  S
O721        C756   1.237       .  S
C722        O735   1.239       .  S
C722        O759   1.273       .  A
C722        H761   1.081       .  S
Mg723       O752   2.148       .  S
Mg723       O767   2.305       .  S
Mg723       O763   2.252       .  S
Mg723       O734   2.297       .  S
O724       Mg766   2.141       .  S
O724       Mg749   2.141   1_545  S
O724        C745   1.238       .  S
O725        C756   1.270       .  A
O725       Mg749   2.295   1_556  S
C726        O728   1.277       .  A
C726        O740   1.278       .  A
C726       C2290   1.488       .  S
O727        C755   1.273   1_554  A
O727       Mg729   2.307       .  S
O728       Mg760   2.293   1_545  S
Mg729       O735   2.132       .  S
Mg729       O743   2.272   1_554  S
Mg729       O731   2.344       .  S
C730        O768   1.275       .  A
C730        O736   1.276       .  A
C730       C1221   1.493       .  S
O731        C738   1.280       .  A
H732        C745   1.081       .  S
C733        O747   1.237   1_565  S
C733        O748   1.271       .  A
C733        H758   1.081       .  S
O734        C757   1.272   1_565  A
O735       Mg749   2.142       .  S
O736       Mg766   2.311       .  S
C737        O750   1.269       .  A
C737        O742   1.274   1_545  A
C737       C1310   1.477       .  S
C738        O765   1.273       .  A
C738       C1830   1.495       .  S
Mg739       O746   2.135       .  S
Mg739       O747   2.137   1_556  S
Mg739       O740   2.314       .  S
Mg739       O741   2.304       .  S
Mg739       O768   2.290   1_556  S
O741        C745   1.272   1_556  A
O742       Mg749   2.297       .  S
O743        C762   1.274       .  A
O744        C764   1.278       .  A
O744       Mg760   2.320       .  S
O746       Mg760   2.147   1_545  S
O746        C757   1.238       .  S
O747       Mg766   2.116       .  S
O748       Mg760   2.296   1_554  S
Mg749       O765   2.264       .  S
O750       Mg766   2.234       .  S
H751        C756   1.081       .  S
O752       Mg760   2.154       .  S
O752        C755   1.239       .  S
H753        C755   1.081       .  S
H754        C757   1.081       .  S
O759       Mg766   2.304   1_565  S
C762        O767   1.276       .  A
C762       C1201   1.486       .  S
O763        C764   1.271       .  A
C764       C2810   1.486       .  S
C769        C770   1.536       .  S
C769        C775   1.530       .  S
C769        C773   1.552       .  S
C769       C1230   1.537       .  S
C770        H777   1.086       .  S
C770        C771   1.368       .  D
C771        C772   1.547       .  S
C771       C1430   1.497       .  S
C772        C776   1.544       .  S
C772        C774   1.539       .  S
C772        H778   1.111       .  S
C773        H779   1.082       .  S
C773        C774   1.372       .  D
C774       C1181   1.484       .  S
C775        H780   1.087       .  S
C775        C776   1.362       .  D
C776       C1630   1.482       .  S
O781       Mg783   2.138       .  S
O781       Mg789   2.141       .  S
O781        C816   1.239       .  S
C782        O795   1.237       .  S
C782        O819   1.271   1_556  A
C782        H821   1.081       .  S
Mg783       O812   2.136       .  S
Mg783       O827   2.322       .  S
Mg783       O823   2.265       .  S
Mg783       O794   2.302       .  S
O784       Mg826   2.145       .  S
O784       Mg809   2.132       .  S
O784        C805   1.238       .  S
O785        C816   1.273   1_554  A
O785       Mg809   2.304       .  S
C786        O788   1.271       .  A
C786        O800   1.276   1_556  A
C786       C2481   1.482       .  S
O787        C815   1.271       .  A
O787       Mg789   2.297       .  S
O788       Mg820   2.241       .  S
Mg789       O795   2.126       .  S
Mg789       O803   2.243       .  S
Mg789       O791   2.302       .  S
C790        O828   1.274       .  A
C790        O796   1.277       .  A
C790       C2070   1.487       .  S
O791        C798   1.275       .  A
H792        C805   1.081       .  S
C793        O807   1.239       .  S
C793        O808   1.273   1_554  A
C793        H818   1.081       .  S
O794        C817   1.271   1_556  A
O795       Mg809   2.139   1_556  S
O796       Mg826   2.316       .  S
C797        O810   1.274       .  A
C797        O802   1.279       .  A
C797       C1190   1.491       .  S
C798        O825   1.274   1_556  A
C798       C1370   1.489       .  S
Mg799       O806   2.140       .  S
Mg799       O807   2.144       .  S
Mg799       O800   2.309       .  S
Mg799       O801   2.296       .  S
Mg799       O828   2.270       .  S
O801        C805   1.271       .  A
O802       Mg809   2.322       .  S
O803        C822   1.270       .  A
O804        C824   1.278       .  A
O804       Mg820   2.335       .  S
O806       Mg820   2.140   1_554  S
O806        C817   1.237       .  S
O807       Mg826   2.139       .  S
O808       Mg820   2.306       .  S
Mg809       O825   2.277       .  S
O810       Mg826   2.271       .  S
H811        C816   1.081       .  S
O812       Mg820   2.124       .  S
O812        C815   1.238       .  S
H813        C815   1.081       .  S
H814        C817   1.081       .  S
O819       Mg826   2.296       .  S
C822        O827   1.277       .  A
C822       C2221   1.487       .  S
O823        C824   1.274       .  A
C824       C1161   1.492       .  S
O829       Mg831   2.152       .  S
O829       Mg837   2.150       .  S
O829        C864   1.237       .  S
C830        O843   1.238       .  S
C830        O867   1.271       .  A
C830        H869   1.081       .  S
Mg831       O860   2.149       .  S
Mg831       O875   2.329       .  S
Mg831       O871   2.288       .  S
Mg831       O842   2.302   1_455  S
O832       Mg874   2.155       .  S
O832       Mg857   2.140       .  S
O832        C853   1.238       .  S
O833        C864   1.270   1_655  A
O833       Mg857   2.296       .  S
C834        O836   1.276       .  A
C834        O848   1.275       .  A
C834       C2670   1.481       .  S
O835        C863   1.273       .  A
O835       Mg837   2.306       .  S
O836       Mg868   2.294       .  S
Mg837       O843   2.141       .  S
Mg837       O851   2.275       .  S
Mg837       O839   2.330       .  S
C838        O876   1.274       .  A
C838        O844   1.276       .  A
C838       C2170   1.492       .  S
O839        C846   1.279       .  A
H840        C853   1.081       .  S
C841        O855   1.238       .  S
C841        O856   1.272       .  A
C841        H866   1.081       .  S
O842        C865   1.272       .  A
O843       Mg857   2.162   1_455  S
O844       Mg874   2.318       .  S
C845        O858   1.272       .  A
C845        O850   1.279       .  A
C845       C1481   1.481       .  S
C846        O873   1.274       .  A
C846       C1150   1.482       .  S
Mg847       O854   2.142       .  S
Mg847       O855   2.144       .  S
Mg847       O848   2.300       .  S
Mg847       O849   2.296       .  S
Mg847       O876   2.276       .  S
O849        C853   1.271       .  A
O850       Mg857   2.324       .  S
O851        C870   1.274       .  A
O852        C872   1.279   1_655  A
O852       Mg868   2.328       .  S
O854       Mg868   2.144       .  S
O854        C865   1.238       .  S
O855       Mg874   2.137       .  S
O856       Mg868   2.305       .  S
Mg857       O873   2.282   1_655  S
O858       Mg874   2.253       .  S
H859        C864   1.081       .  S
O860       Mg868   2.150   1_455  S
O860        C863   1.238       .  S
H861        C863   1.081       .  S
H862        C865   1.081       .  S
O867       Mg874   2.296   1_455  S
C870        O875   1.280       .  A
C870       C2021   1.489       .  S
O871        C872   1.276       .  A
C872       C1121   1.495       .  S
O877       Mg879   2.132       .  S
O877       Mg885   2.153   1_655  S
O877        C912   1.237       .  S
C878        O891   1.238       .  S
C878        O915   1.273       .  A
C878        H917   1.081       .  S
Mg879       O908   2.150       .  S
Mg879       O923   2.296       .  S
Mg879       O919   2.259       .  S
Mg879       O890   2.292   1_556  S
O880       Mg922   2.140       .  S
O880       Mg905   2.142       .  S
O880        C901   1.238       .  S
O881        C912   1.271   1_554  A
O881       Mg905   2.297   1_655  S
C882        O884   1.273       .  A
C882        O896   1.281   1_655  A
C882       C1950   1.488       .  S
O883        C911   1.270   1_455  A
O883       Mg885   2.292       .  S
O884       Mg916   2.251   1_554  S
Mg885       O891   2.152       .  S
Mg885       O899   2.291   1_455  S
Mg885       O887   2.294       .  S
C886        O924   1.277       .  A
C886        O892   1.276       .  A
C886       C1110   1.492       .  S
O887        C894   1.275       .  A
H888        C901   1.081       .  S
C889        O903   1.239       .  S
C889        O904   1.273       .  A
C889        H914   1.081       .  S
O890        C913   1.270       .  A
O891       Mg905   2.154   1_556  S
O892       Mg922   2.316       .  S
C893        O906   1.272       .  A
C893        O898   1.277       .  A
C893       C1341   1.479       .  S
C894        O921   1.274       .  A
C894       C1650   1.487       .  S
Mg895       O902   2.145   1_455  S
Mg895       O903   2.147       .  S
Mg895       O896   2.335       .  S
Mg895       O897   2.304       .  S
Mg895       O924   2.291       .  S
O897        C901   1.272       .  A
O898       Mg905   2.314       .  S
O899        C918   1.275       .  A
O900        C920   1.280       .  A
O900       Mg916   2.344       .  S
O902       Mg916   2.148   1_554  S
O902        C913   1.236       .  S
O903       Mg922   2.145       .  S
O904       Mg916   2.305   1_454  S
Mg905       O921   2.276   1_554  S
O906       Mg922   2.269       .  S
H907        C912   1.081       .  S
O908       Mg916   2.128       .  S
O908        C911   1.237       .  S
H909        C911   1.081   1_455  S
H910        C913   1.081       .  S
O915       Mg922   2.311   1_556  S
C918        O923   1.275       .  A
C918       C2690   1.490       .  S
O919        C920   1.272       .  A
C920       C2470   1.486       .  S
C925        C926   1.526       .  S
C925        C931   1.528       .  S
C925        C929   1.548       .  S
C925       C1901   1.531       .  S
C926        H933   1.086       .  S
C926        C927   1.363       .  D
C927        C928   1.549       .  S
C927       C1141   1.495       .  S
C928        C932   1.547       .  S
C928        C930   1.547       .  S
C928        H934   1.109       .  S
C929        H935   1.081       .  S
C929        C930   1.376       .  D
C930       C1390   1.494       .  S
C931        H936   1.086       .  S
C931        C932   1.364       .  D
C932       C1101   1.490       .  S
O937       Mg939   2.139       .  S
O937       Mg945   2.140       .  S
O937        C972   1.238       .  S
C938        O951   1.237       .  S
C938        O975   1.271       .  A
C938        H977   1.081       .  S
Mg939       O968   2.145       .  S
Mg939       O983   2.321       .  S
Mg939       O979   2.273       .  S
Mg939       O950   2.299       .  S
O940       Mg982   2.142       .  S
O940       Mg965   2.132       .  S
O940        C961   1.237       .  S
O941        C972   1.272       .  A
O941       Mg965   2.302       .  S
C942        O944   1.273       .  A
C942        O956   1.275       .  A
C942       C2141   1.486       .  S
O943        C971   1.272       .  A
O943       Mg945   2.301       .  S
O944       Mg976   2.271       .  S
Mg945       O951   2.147       .  S
Mg945       O959   2.275       .  S
Mg945       O947   2.327       .  S
C946        O984   1.272       .  A
C946        O952   1.276       .  A
C946       C2081   1.487       .  S
O947        C954   1.279       .  A
H948        C961   1.081       .  S
C949        O963   1.238       .  S
C949        O964   1.272       .  A
C949        H974   1.081       .  S
O950        C973   1.271       .  A
O951       Mg965   2.144       .  S
O952       Mg982   2.320       .  S
C953        O966   1.273       .  A
C953        O958   1.277       .  A
C953       C2430   1.490       .  S
C954        O981   1.271       .  A
C954       C2010   1.487       .  S
Mg955       O962   2.130       .  S
Mg955       O963   2.144       .  S
Mg955       O956   2.300       .  S
Mg955       O957   2.296       .  S
Mg955       O984   2.249       .  S
O957        C961   1.270       .  A
O958       Mg965   2.325       .  S
O959        C978   1.275       .  A
O960        C980   1.275       .  A
O960       Mg976   2.301       .  S
O962       Mg976   2.144       .  S
O962        C973   1.238       .  S
O963       Mg982   2.133       .  S
O964       Mg976   2.299       .  S
Mg965       O981   2.247       .  S
O966       Mg982   2.254       .  S
H967        C972   1.081       .  S
O968       Mg976   2.137       .  S
O968        C971   1.238       .  S
H969        C971   1.081       .  S
H970        C973   1.081       .  S
O975       Mg982   2.302       .  S
C978        O983   1.278       .  A
C978       C2250   1.492       .  S
O979        C980   1.275       .  A
C980       C1741   1.487       .  S
C985        C986   1.529   1_655  S
C985        C991   1.535       .  S
C985        C989   1.553       .  S
C985       C1270   1.534       .  S
C986        H993   1.087       .  S
C986        C987   1.360       .  D
C987        C988   1.544   1_455  S
C987       C1081   1.480       .  S
C988        C992   1.543       .  S
C988        C990   1.542       .  S
C988        H994   1.110       .  S
C989        H995   1.080       .  S
C989        C990   1.375       .  D
C990       C1130   1.496       .  S
C991        H996   1.087       .  S
C991        C992   1.360       .  D
C992       C2970   1.478       .  S
O997       Mg999   2.132       .  S
O997      Mg1005   2.151       .  S
O997       C1032   1.238       .  S
C998       O1011   1.238       .  S
C998       O1035   1.271       .  A
C998       H1037   1.081       .  S
Mg999      O1028   2.146       .  S
Mg999      O1043   2.311       .  S
Mg999      O1039   2.274       .  S
Mg999      O1010   2.303       .  S
O1000     Mg1042   2.150       .  S
O1000     Mg1025   2.138       .  S
O1000      C1021   1.237       .  S
O1001      C1032   1.271       .  A
O1001     Mg1025   2.294       .  S
C1002      O1004   1.271       .  A
C1002      O1016   1.277       .  A
C1002      C1061   1.486       .  S
O1003      C1031   1.271       .  A
O1003     Mg1005   2.300       .  S
O1004     Mg1036   2.255       .  S
Mg1005     O1011   2.133       .  S
Mg1005     O1019   2.268       .  S
Mg1005     O1007   2.321       .  S
C1006      O1044   1.275       .  A
C1006      O1012   1.279       .  A
C1006      C2190   1.489       .  S
O1007      C1014   1.278       .  A
H1008      C1021   1.081       .  S
C1009      O1023   1.237       .  S
C1009      O1024   1.271       .  A
C1009      H1034   1.081       .  S
O1010      C1033   1.272       .  A
O1011     Mg1025   2.147       .  S
O1012     Mg1042   2.328       .  S
C1013      O1026   1.274       .  A
C1013      O1018   1.275       .  A
C1013      C1990   1.484       .  S
C1014      O1041   1.273       .  A
C1014      C1090   1.489       .  S
Mg1015     O1022   2.145       .  S
Mg1015     O1023   2.147       .  S
Mg1015     O1016   2.312       .  S
Mg1015     O1017   2.293       .  S
Mg1015     O1044   2.271       .  S
O1017      C1021   1.270       .  A
O1018     Mg1025   2.296       .  S
O1019      C1038   1.274       .  A
O1020      C1040   1.276       .  A
O1020     Mg1036   2.309       .  S
O1022     Mg1036   2.148       .  S
O1022      C1033   1.238       .  S
O1023     Mg1042   2.135       .  S
O1024     Mg1036   2.300       .  S
Mg1025     O1041   2.268       .  S
O1026     Mg1042   2.269       .  S
H1027      C1032   1.081       .  S
O1028     Mg1036   2.134       .  S
O1028      C1031   1.238       .  S
H1029      C1031   1.081       .  S
H1030      C1033   1.081       .  S
O1035     Mg1042   2.296       .  S
C1038      O1043   1.277       .  A
C1038      C2330   1.486       .  S
O1039      C1040   1.273       .  A
C1040      C1810   1.490       .  S
C1045      C1046   1.526       .  S
C1045      C1051   1.532       .  S
C1045      C1049   1.550       .  S
C1045      C1070   1.529       .  S
C1046      H1053   1.087       .  S
C1046      C1047   1.360       .  D
C1047      C1048   1.548       .  S
C1047      C1210   1.490       .  S
C1048      C1052   1.540       .  S
C1048      C1050   1.550       .  S
C1048      H1054   1.109       .  S
C1049      H1055   1.081       .  S
C1049      C1050   1.378       .  D
C1050      C2910   1.499       .  S
C1051      H1056   1.087       .  S
C1051      C1052   1.361       .  D
C1052      C1170   1.480       .  S
C1057      H1067   1.084       .  S
C1057      C1058   1.402       .  A
C1057      C1062   1.398       .  A
C1058      C1063   1.476       .  S
C1058      C1059   1.402       .  A
C1059      C1060   1.398       .  A
C1059      F1064   1.357       .  S
C1060      H1065   1.083       .  S
C1060      C1061   1.408       .  A
C1061      C1062   1.413       .  A
C1062      F1066   1.358       .  S
C1063      C1068   1.405       .  A
C1063      C1072   1.396       .  A
C1068      C1069   1.403       .  A
C1068      F1073   1.357       .  S
C1069      H1074   1.078       .  S
C1069      C1070   1.409       .  A
C1070      C1071   1.417       .  A
C1071      C1072   1.393       .  A
C1071      F1075   1.358       .  S
C1072      H1076   1.084       .  S
C1077      H1087   1.083       .  S
C1077      C1078   1.407       .  A
C1077      C1082   1.402       .  A
C1078      C1083   1.491       .  S
C1078      C1079   1.409       .  A
C1079      C1080   1.400       .  A
C1079      F1084   1.357       .  S
C1080      H1085   1.083       .  S
C1080      C1081   1.402       .  A
C1081      C1082   1.404       .  A
C1082      F1086   1.357       .  S
C1083      C1088   1.409       .  A
C1083      C1092   1.404       .  A
C1088      C1089   1.401       .  A
C1088      F1093   1.357       .  S
C1089      H1094   1.083       .  S
C1089      C1090   1.407       .  A
C1090      C1091   1.411       .  A
C1091      C1092   1.400       .  A
C1091      F1095   1.358       .  S
C1092      H1096   1.083       .  S
C1097      H1107   1.083       .  S
C1097      C1098   1.405       .  A
C1097      C1102   1.395       .  A
C1098      C1103   1.496       .  S
C1098      C1099   1.412       .  A
C1099      C1100   1.407       .  A
C1099      F1104   1.357       .  S
C1100      H1105   1.083       .  S
C1100      C1101   1.405       .  A
C1101      C1102   1.407       .  A
C1102      F1106   1.358       .  S
C1103      C1108   1.409       .  A
C1103      C1112   1.407       .  A
C1108      C1109   1.400       .  A
C1108      F1113   1.357       .  S
C1109      H1114   1.083       .  S
C1109      C1110   1.406       .  A
C1110      C1111   1.412       .  A
C1111      C1112   1.405       .  A
C1111      F1115   1.358       .  S
C1112      H1116   1.083       .  S
C1117      H1127   1.083       .  S
C1117      C1118   1.403   1_455  A
C1117      C1122   1.404       .  A
C1118      C1123   1.487       .  S
C1118      C1119   1.406       .  A
C1119      C1120   1.401       .  A
C1119      F1124   1.357       .  S
C1120      H1125   1.083       .  S
C1120      C1121   1.408   1_655  A
C1121      C1122   1.414       .  A
C1122      F1126   1.357       .  S
C1123      C1128   1.405   1_655  A
C1123      C1132   1.405       .  A
C1128      C1129   1.399       .  A
C1128      F1133   1.357       .  S
C1129      H1134   1.081       .  S
C1129      C1130   1.406   1_455  A
C1130      C1131   1.411       .  A
C1131      C1132   1.404       .  A
C1131      F1135   1.357       .  S
C1132      H1136   1.083       .  S
C1137      H1147   1.082       .  S
C1137      C1138   1.405       .  A
C1137      C1142   1.393       .  A
C1138      C1143   1.504       .  S
C1138      C1139   1.416       .  A
C1139      C1140   1.410       .  A
C1139      F1144   1.357       .  S
C1140      H1145   1.083       .  S
C1140      C1141   1.404       .  A
C1141      C1142   1.410       .  A
C1142      F1146   1.358       .  S
C1143      C1148   1.415       .  A
C1143      C1152   1.410       .  A
C1148      C1149   1.400       .  A
C1148      F1153   1.357       .  S
C1149      H1154   1.083       .  S
C1149      C1150   1.400       .  A
C1150      C1151   1.406       .  A
C1151      C1152   1.405       .  A
C1151      F1155   1.357       .  S
C1152      H1156   1.082       .  S
C1157      H1167   1.083       .  S
C1157      C1158   1.406       .  A
C1157      C1162   1.407       .  A
C1158      C1163   1.488       .  S
C1158      C1159   1.406       .  A
C1159      C1160   1.395       .  A
C1159      F1164   1.358       .  S
C1160      H1165   1.083       .  S
C1160      C1161   1.407       .  A
C1161      C1162   1.413       .  A
C1162      F1166   1.357       .  S
C1163      C1168   1.408       .  A
C1163      C1172   1.406       .  A
C1168      C1169   1.397       .  A
C1168      F1173   1.358       .  S
C1169      H1174   1.084       .  S
C1169      C1170   1.402       .  A
C1170      C1171   1.406       .  A
C1171      C1172   1.404       .  A
C1171      F1175   1.357       .  S
C1172      H1176   1.083       .  S
C1177      H1187   1.083       .  S
C1177      C1178   1.404       .  A
C1177      C1182   1.400       .  A
C1178      C1183   1.484       .  S
C1178      C1179   1.407       .  A
C1179      C1180   1.402       .  A
C1179      F1184   1.357       .  S
C1180      H1185   1.083       .  S
C1180      C1181   1.405       .  A
C1181      C1182   1.406       .  A
C1182      F1186   1.357       .  S
C1183      C1188   1.405       .  A
C1183      C1192   1.403       .  A
C1188      C1189   1.401       .  A
C1188      F1193   1.357       .  S
C1189      H1194   1.083       .  S
C1189      C1190   1.409       .  A
C1190      C1191   1.413       .  A
C1191      C1192   1.401       .  A
C1191      F1195   1.357       .  S
C1192      H1196   1.083       .  S
C1197      H1207   1.083       .  S
C1197      C1198   1.406       .  A
C1197      C1202   1.398       .  A
C1198      C1203   1.489       .  S
C1198      C1199   1.408       .  A
C1199      C1200   1.399       .  A
C1199      F1204   1.357       .  S
C1200      H1205   1.083       .  S
C1200      C1201   1.407       .  A
C1201      C1202   1.409       .  A
C1202      F1206   1.357       .  S
C1203      C1208   1.408       .  A
C1203      C1212   1.404       .  A
C1208      C1209   1.403       .  A
C1208      F1213   1.357       .  S
C1209      H1214   1.069       .  S
C1209      C1210   1.404       .  A
C1210      C1211   1.409       .  A
C1211      C1212   1.395       .  A
C1211      F1215   1.358       .  S
C1212      H1216   1.083       .  S
C1217      H1227   1.083       .  S
C1217      C1218   1.404       .  A
C1217      C1222   1.399       .  A
C1218      C1223   1.490       .  S
C1218      C1219   1.407       .  A
C1219      C1220   1.404       .  A
C1219      F1224   1.357       .  S
C1220      H1225   1.083       .  S
C1220      C1221   1.409       .  A
C1221      C1222   1.412       .  A
C1222      F1226   1.358       .  S
C1223      C1228   1.407       .  A
C1223      C1232   1.401       .  A
C1228      C1229   1.406       .  A
C1228      F1233   1.357       .  S
C1229      H1234   1.078       .  S
C1229      C1230   1.413       .  A
C1230      C1231   1.414       .  A
C1231      C1232   1.397       .  A
C1231      F1235   1.358       .  S
C1232      H1236   1.083       .  S
C1237      H1247   1.083       .  S
C1237      C1238   1.403       .  A
C1237      C1242   1.405       .  A
C1238      C1243   1.490       .  S
C1238      C1239   1.407       .  A
C1239      C1240   1.402       .  A
C1239      F1244   1.358       .  S
C1240      H1245   1.083       .  S
C1240      C1241   1.409       .  A
C1241      C1242   1.414       .  A
C1242      F1246   1.357       .  S
C1243      C1248   1.409       .  A
C1243      C1252   1.404       .  A
C1248      C1249   1.406       .  A
C1248      F1253   1.357       .  S
C1249      H1254   1.083       .  S
C1249      C1250   1.404       .  A
C1250      C1251   1.406       .  A
C1251      C1252   1.399       .  A
C1251      F1255   1.358       .  S
C1252      H1256   1.083       .  S
C1257      H1267   1.083       .  S
C1257      C1258   1.402       .  A
C1257      C1262   1.396       .  A
C1258      C1263   1.487       .  S
C1258      C1259   1.409       .  A
C1259      C1260   1.401       .  A
C1259      F1264   1.357       .  S
C1260      H1265   1.083       .  S
C1260      C1261   1.406       .  A
C1261      C1262   1.411       .  A
C1262      F1266   1.358       .  S
C1263      C1268   1.403       .  A
C1263      C1272   1.405       .  A
C1268      C1269   1.395       .  A
C1268      F1273   1.357       .  S
C1269      H1274   1.083       .  S
C1269      C1270   1.413       .  A
C1270      C1271   1.415       .  A
C1271      C1272   1.402       .  A
C1271      F1275   1.354   1_655  S
C1272      H1276   1.083       .  S
C1277      H1287   1.083       .  S
C1277      C1278   1.406       .  A
C1277      C1282   1.400       .  A
C1278      C1283   1.494       .  S
C1278      C1279   1.411       .  A
C1279      C1280   1.404       .  A
C1279      F1284   1.357       .  S
C1280      H1285   1.083       .  S
C1280      C1281   1.403       .  A
C1281      C1282   1.408       .  A
C1282      F1286   1.358       .  S
C1283      C1288   1.409       .  A
C1283      C1292   1.407       .  A
C1288      C1289   1.402       .  A
C1288      F1293   1.358       .  S
C1289      H1294   1.083       .  S
C1289      C1290   1.408       .  A
C1290      C1291   1.409       .  A
C1291      C1292   1.402       .  A
C1291      F1295   1.357       .  S
C1292      H1296   1.083       .  S
C1297      H1307   1.083       .  S
C1297      C1298   1.398   1_565  A
C1297      C1302   1.396       .  A
C1298      C1303   1.467       .  S
C1298      C1299   1.400       .  A
C1299      C1300   1.391       .  A
C1299      F1304   1.358       .  S
C1300      H1305   1.075       .  S
C1300      C1301   1.410       .  A
C1301      C1302   1.416   1_545  A
C1302      F1306   1.358       .  S
C1303      C1308   1.401       .  A
C1303      C1312   1.400   1_545  A
C1308      C1309   1.393       .  A
C1308      F1313   1.358       .  S
C1309      H1314   1.083       .  S
C1309      C1310   1.407       .  A
C1310      C1311   1.410   1_545  A
C1311      C1312   1.395       .  A
C1311      F1315   1.357       .  S
C1312      H1316   1.084       .  S
C1317      H1327   1.083       .  S
C1317      C1318   1.404       .  A
C1317      C1322   1.398       .  A
C1318      C1323   1.479       .  S
C1318      C1319   1.406   1_545  A
C1319      C1320   1.396       .  A
C1319      F1324   1.357       .  S
C1320      H1325   1.083       .  S
C1320      C1321   1.402   1_565  A
C1321      C1322   1.407       .  A
C1322      F1326   1.358       .  S
C1323      C1328   1.406   1_545  A
C1323      C1332   1.400       .  A
C1328      C1329   1.400       .  A
C1328      F1333   1.357       .  S
C1329      H1334   1.083       .  S
C1329      C1330   1.406   1_565  A
C1330      C1331   1.413       .  A
C1331      C1332   1.395       .  A
C1331      F1335   1.358       .  S
C1332      H1336   1.084       .  S
C1337      H1347   1.083       .  S
C1337      C1338   1.405       .  A
C1337      C1342   1.403       .  A
C1338      C1343   1.483       .  S
C1338      C1339   1.406   1_554  A
C1339      C1340   1.395       .  A
C1339      F1344   1.358       .  S
C1340      H1345   1.083       .  S
C1340      C1341   1.402   1_556  A
C1341      C1342   1.409       .  A
C1342      F1346   1.358       .  S
C1343      C1348   1.405       .  A
C1343      C1352   1.399       .  A
C1348      C1349   1.403       .  A
C1348      F1353   1.357       .  S
C1349      H1354   1.082       .  S
C1349      C1350   1.412       .  A
C1350      C1351   1.413       .  A
C1351      C1352   1.394       .  A
C1351      F1355   1.353   1_554  S
C1352      H1356   1.084       .  S
C1357      H1367   1.083       .  S
C1357      C1358   1.403   1_554  A
C1357      C1362   1.400       .  A
C1358      C1363   1.485       .  S
C1358      C1359   1.404       .  A
C1359      C1360   1.397       .  A
C1359      F1364   1.358       .  S
C1360      H1365   1.075       .  S
C1360      C1361   1.413       .  A
C1361      C1362   1.414   1_556  A
C1362      F1366   1.358       .  S
C1363      C1368   1.405       .  A
C1363      C1372   1.405   1_556  A
C1368      C1369   1.398       .  A
C1368      F1373   1.358       .  S
C1369      H1374   1.083       .  S
C1369      C1370   1.409       .  A
C1370      C1371   1.411   1_556  A
C1371      C1372   1.400       .  A
C1371      F1375   1.357       .  S
C1372      H1376   1.083       .  S
C1377      H1387   1.083       .  S
C1377      C1378   1.407       .  A
C1377      C1382   1.398       .  A
C1378      C1383   1.496       .  S
C1378      C1379   1.412       .  A
C1379      C1380   1.403       .  A
C1379      F1384   1.357       .  S
C1380      H1385   1.083       .  S
C1380      C1381   1.404       .  A
C1381      C1382   1.406       .  A
C1382      F1386   1.358       .  S
C1383      C1388   1.410       .  A
C1383      C1392   1.407       .  A
C1388      C1389   1.398       .  A
C1388      F1393   1.357       .  S
C1389      H1394   1.082       .  S
C1389      C1390   1.404       .  A
C1390      C1391   1.410       .  A
C1391      C1392   1.402       .  A
C1391      F1395   1.357       .  S
C1392      H1396   1.083       .  S
C1397      H1407   1.083       .  S
C1397      C1398   1.405       .  A
C1397      C1402   1.402       .  A
C1398      C1403   1.498       .  S
C1398      C1399   1.407       .  A
C1399      C1400   1.401       .  A
C1399      F1404   1.357       .  S
C1400      H1405   1.081       .  S
C1400      C1401   1.412       .  A
C1401      C1402   1.414       .  A
C1402      F1406   1.354       .  S
C1403      C1408   1.410       .  A
C1403      C1412   1.408       .  A
C1408      C1409   1.400       .  A
C1408      F1413   1.357       .  S
C1409      H1414   1.083       .  S
C1409      C1410   1.406       .  A
C1410      C1411   1.410       .  A
C1411      C1412   1.403       .  A
C1411      F1415   1.358       .  S
C1412      H1416   1.083       .  S
C1417      H1427   1.083       .  S
C1417      C1418   1.405       .  A
C1417      C1422   1.406       .  A
C1418      C1423   1.493       .  S
C1418      C1419   1.407       .  A
C1419      C1420   1.402       .  A
C1419      F1424   1.357       .  S
C1420      H1425   1.083       .  S
C1420      C1421   1.409       .  A
C1421      C1422   1.415       .  A
C1422      F1426   1.357       .  S
C1423      C1428   1.410       .  A
C1423      C1432   1.403       .  A
C1428      C1429   1.410       .  A
C1428      F1433   1.357       .  S
C1429      H1434   1.083       .  S
C1429      C1430   1.407       .  A
C1430      C1431   1.410       .  A
C1431      C1432   1.398       .  A
C1431      F1435   1.357       .  S
C1432      H1436   1.083       .  S
C1437      H1447   1.083       .  S
C1437      C1438   1.402       .  A
C1437      C1442   1.401       .  A
C1438      C1443   1.485       .  S
C1438      C1439   1.407       .  A
C1439      C1440   1.399       .  A
C1439      F1444   1.358       .  S
C1440      H1445   1.083       .  S
C1440      C1441   1.407       .  A
C1441      C1442   1.413       .  A
C1442      F1446   1.357       .  S
C1443      C1448   1.408       .  A
C1443      C1452   1.402       .  A
C1448      C1449   1.403       .  A
C1448      F1453   1.357       .  S
C1449      H1454   1.083       .  S
C1449      C1450   1.405       .  A
C1450      C1451   1.410       .  A
C1451      C1452   1.396       .  A
C1451      F1455   1.358       .  S
C1452      H1456   1.083       .  S
C1457      H1467   1.083       .  S
C1457      C1458   1.405       .  A
C1457      C1462   1.396       .  A
C1458      C1463   1.485       .  S
C1458      C1459   1.408       .  A
C1459      C1460   1.400       .  A
C1459      F1464   1.357       .  S
C1460      H1465   1.083       .  S
C1460      C1461   1.403       .  A
C1461      C1462   1.405       .  A
C1462      F1466   1.358       .  S
C1463      C1468   1.405       .  A
C1463      C1472   1.407       .  A
C1468      C1469   1.396       .  A
C1468      F1473   1.358       .  S
C1469      H1474   1.083       .  S
C1469      C1470   1.407       .  A
C1470      C1471   1.407       .  A
C1471      C1472   1.401       .  A
C1471      F1475   1.357       .  S
C1472      H1476   1.083       .  S
C1477      H1487   1.083       .  S
C1477      C1478   1.404       .  A
C1477      C1482   1.399       .  A
C1478      C1483   1.481       .  S
C1478      C1479   1.404       .  A
C1479      C1480   1.399       .  A
C1479      F1484   1.357       .  S
C1480      H1485   1.083       .  S
C1480      C1481   1.407       .  A
C1481      C1482   1.407       .  A
C1482      F1486   1.357       .  S
C1483      C1488   1.408       .  A
C1483      C1492   1.403   1_655  A
C1488      C1489   1.402       .  A
C1488      F1493   1.357       .  S
C1489      H1494   1.084       .  S
C1489      C1490   1.402       .  A
C1490      C1491   1.406   1_655  A
C1491      C1492   1.397       .  A
C1491      F1495   1.358       .  S
C1492      H1496   1.083       .  S
C1497      H1507   1.084       .  S
C1497      C1498   1.402   1_455  A
C1497      C1502   1.396       .  A
C1498      C1503   1.481       .  S
C1498      C1499   1.407       .  A
C1499      C1500   1.404       .  A
C1499      F1504   1.357       .  S
C1500      H1505   1.083       .  S
C1500      C1501   1.404       .  A
C1501      C1502   1.406   1_655  A
C1502      F1506   1.358       .  S
C1503      C1508   1.403       .  A
C1503      C1512   1.404   1_655  A
C1508      C1509   1.398       .  A
C1508      F1513   1.358       .  S
C1509      H1514   1.083       .  S
C1509      C1510   1.410   1_655  A
C1510      C1511   1.411       .  A
C1511      C1512   1.403       .  A
C1511      F1515   1.357       .  S
C1512      H1516   1.083       .  S
C1517      H1527   1.084       .  S
C1517      C1518   1.403       .  A
C1517      C1522   1.396       .  A
C1518      C1523   1.482       .  S
C1518      C1519   1.406       .  A
C1519      C1520   1.401       .  A
C1519      F1524   1.358       .  S
C1520      H1525   1.083       .  S
C1520      C1521   1.408       .  A
C1521      C1522   1.409       .  A
C1522      F1526   1.357       .  S
C1523      C1528   1.406       .  A
C1523      C1532   1.400       .  A
C1528      C1529   1.402       .  A
C1528      F1533   1.357       .  S
C1529      H1534   1.077       .  S
C1529      C1530   1.411       .  A
C1530      C1531   1.413       .  A
C1531      C1532   1.393       .  A
C1531      F1535   1.358       .  S
C1532      H1536   1.084       .  S
C1537      H1547   1.083       .  S
C1537      C1538   1.404       .  A
C1537      C1542   1.402       .  A
C1538      C1543   1.481       .  S
C1538      C1539   1.404   1_545  A
C1539      C1540   1.396       .  A
C1539      F1544   1.357       .  S
C1540      H1545   1.082       .  S
C1540      C1541   1.403   1_565  A
C1541      C1542   1.409       .  A
C1542      F1546   1.358       .  S
C1543      C1548   1.403       .  A
C1543      C1552   1.403   1_545  A
C1548      C1549   1.399       .  A
C1548      F1553   1.358       .  S
C1549      H1554   1.083       .  S
C1549      C1550   1.410       .  A
C1550      C1551   1.411   1_545  A
C1551      C1552   1.400       .  A
C1551      F1555   1.357       .  S
C1552      H1556   1.083       .  S
C1557      H1567   1.083       .  S
C1557      C1558   1.402       .  A
C1557      C1562   1.399       .  A
C1558      C1563   1.481       .  S
C1558      C1559   1.403   1_545  A
C1559      C1560   1.394       .  A
C1559      F1564   1.358       .  S
C1560      H1565   1.075       .  S
C1560      C1561   1.411   1_565  A
C1561      C1562   1.414       .  A
C1562      F1566   1.358       .  S
C1563      C1568   1.405       .  A
C1563      C1572   1.405       .  A
C1568      C1569   1.398       .  A
C1568      F1573   1.358       .  S
C1569      H1574   1.083       .  S
C1569      C1570   1.408       .  A
C1570      C1571   1.406       .  A
C1571      C1572   1.395       .  A
C1571      F1575   1.357       .  S
C1572      H1576   1.083       .  S
C1577      H1587   1.083       .  S
C1577      C1578   1.404       .  A
C1577      C1582   1.404       .  A
C1578      C1583   1.483       .  S
C1578      C1579   1.405       .  A
C1579      C1580   1.396       .  A
C1579      F1584   1.358       .  S
C1580      H1585   1.083       .  S
C1580      C1581   1.405       .  A
C1581      C1582   1.410       .  A
C1582      F1586   1.356       .  S
C1583      C1588   1.405       .  A
C1583      C1592   1.403       .  A
C1588      C1589   1.396       .  A
C1588      F1593   1.358       .  S
C1589      H1594   1.083       .  S
C1589      C1590   1.407       .  A
C1590      C1591   1.413       .  A
C1591      C1592   1.404       .  A
C1591      F1595   1.357       .  S
C1592      H1596   1.083       .  S
C1597      H1607   1.083       .  S
C1597      C1598   1.406       .  A
C1597      C1602   1.403       .  A
C1598      C1603   1.486       .  S
C1598      C1599   1.405       .  A
C1599      C1600   1.396       .  A
C1599      F1604   1.358       .  S
C1600      H1605   1.083       .  S
C1600      C1601   1.408       .  A
C1601      C1602   1.411       .  A
C1602      F1606   1.357       .  S
C1603      C1608   1.408       .  A
C1603      C1612   1.405       .  A
C1608      C1609   1.402       .  A
C1608      F1613   1.357       .  S
C1609      H1614   1.083       .  S
C1609      C1610   1.404       .  A
C1610      C1611   1.404       .  A
C1611      C1612   1.397       .  A
C1611      F1615   1.357       .  S
C1612      H1616   1.083       .  S
C1617      H1627   1.083       .  S
C1617      C1618   1.406       .  A
C1617      C1622   1.403       .  A
C1618      C1623   1.491       .  S
C1618      C1619   1.409       .  A
C1619      C1620   1.397       .  A
C1619      F1624   1.357       .  S
C1620      H1625   1.083       .  S
C1620      C1621   1.405       .  A
C1621      C1622   1.411       .  A
C1622      F1626   1.357       .  S
C1623      C1628   1.409       .  A
C1623      C1632   1.407       .  A
C1628      C1629   1.399       .  A
C1628      F1633   1.357       .  S
C1629      H1634   1.083       .  S
C1629      C1630   1.403       .  A
C1630      C1631   1.406       .  A
C1631      C1632   1.402       .  A
C1631      F1635   1.356       .  S
C1632      H1636   1.083       .  S
C1637      H1647   1.084       .  S
C1637      C1638   1.403       .  A
C1637      C1642   1.396       .  A
C1638      C1643   1.480       .  S
C1638      C1639   1.408       .  A
C1639      C1640   1.403   1_455  A
C1639      F1644   1.357       .  S
C1640      H1645   1.083       .  S
C1640      C1641   1.402   1_655  A
C1641      C1642   1.404       .  A
C1642      F1646   1.358       .  S
C1643      C1648   1.405       .  A
C1643      C1652   1.401       .  A
C1648      C1649   1.403       .  A
C1648      F1653   1.357       .  S
C1649      H1654   1.083       .  S
C1649      C1650   1.410       .  A
C1650      C1651   1.411       .  A
C1651      C1652   1.395       .  A
C1651      F1655   1.358   1_455  S
C1652      H1656   1.084   1_455  S
C1657      H1667   1.083       .  S
C1657      C1658   1.408       .  A
C1657      C1662   1.400       .  A
C1658      C1663   1.495       .  S
C1658      C1659   1.410   1_655  A
C1659      C1660   1.403       .  A
C1659      F1664   1.357       .  S
C1660      H1665   1.083       .  S
C1660      C1661   1.406   1_455  A
C1661      C1662   1.406       .  A
C1662      F1666   1.357       .  S
C1663      C1668   1.411   1_655  A
C1663      C1672   1.408       .  A
C1668      C1669   1.401       .  A
C1668      F1673   1.357       .  S
C1669      H1674   1.084       .  S
C1669      C1670   1.404   1_455  A
C1670      C1671   1.404       .  A
C1671      C1672   1.399       .  A
C1671      F1675   1.357       .  S
C1672      H1676   1.083       .  S
C1677      H1687   1.083       .  S
C1677      C1678   1.406       .  A
C1677      C1682   1.404       .  A
C1678      C1683   1.486       .  S
C1678      C1679   1.405       .  A
C1679      C1680   1.395       .  A
C1679      F1684   1.358       .  S
C1680      H1685   1.083       .  S
C1680      C1681   1.406       .  A
C1681      C1682   1.411       .  A
C1682      F1686   1.357       .  S
C1683      C1688   1.407       .  A
C1683      C1692   1.403       .  A
C1688      C1689   1.403       .  A
C1688      F1693   1.357       .  S
C1689      H1694   1.083       .  S
C1689      C1690   1.407       .  A
C1690      C1691   1.409       .  A
C1691      C1692   1.395       .  A
C1691      F1695   1.356       .  S
C1692      H1696   1.083       .  S
C1697      H1707   1.083       .  S
C1697      C1698   1.403       .  A
C1697      C1702   1.403       .  A
C1698      C1703   1.480       .  S
C1698      C1699   1.405       .  A
C1699      C1700   1.392       .  A
C1699      F1704   1.358       .  S
C1700      H1705   1.083       .  S
C1700      C1701   1.405       .  A
C1701      C1702   1.413       .  A
C1702      F1706   1.357       .  S
C1703      C1708   1.407       .  A
C1703      C1712   1.403       .  A
C1708      C1709   1.402       .  A
C1708      F1713   1.357       .  S
C1709      H1714   1.081       .  S
C1709      C1710   1.404       .  A
C1710      C1711   1.403       .  A
C1711      C1712   1.394       .  A
C1711      F1715   1.358       .  S
C1712      H1716   1.084       .  S
C1717      H1727   1.083       .  S
C1717      C1718   1.403       .  A
C1717      C1722   1.397       .  A
C1718      C1723   1.479       .  S
C1718      C1719   1.404       .  A
C1719      C1720   1.397       .  A
C1719      F1724   1.358       .  S
C1720      H1725   1.083       .  S
C1720      C1721   1.408       .  A
C1721      C1722   1.410       .  A
C1722      F1726   1.357       .  S
C1723      C1728   1.401       .  A
C1723      C1732   1.402       .  A
C1728      C1729   1.395       .  A
C1728      F1733   1.358       .  S
C1729      H1734   1.075       .  S
C1729      C1730   1.414       .  A
C1730      C1731   1.413       .  A
C1731      C1732   1.399       .  A
C1731      F1735   1.358       .  S
C1732      H1736   1.083       .  S
C1737      H1747   1.083       .  S
C1737      C1738   1.401       .  A
C1737      C1742   1.401       .  A
C1738      C1743   1.479       .  S
C1738      C1739   1.405       .  A
C1739      C1740   1.396       .  A
C1739      F1744   1.358       .  S
C1740      H1745   1.083       .  S
C1740      C1741   1.406       .  A
C1741      C1742   1.414       .  A
C1742      F1746   1.357       .  S
C1743      C1748   1.405       .  A
C1743      C1752   1.403       .  A
C1748      C1749   1.397       .  A
C1748      F1753   1.358       .  S
C1749      H1754   1.083       .  S
C1749      C1750   1.404       .  A
C1750      C1751   1.406       .  A
C1751      C1752   1.400       .  A
C1751      F1755   1.357       .  S
C1752      H1756   1.083       .  S
C1757      H1767   1.083       .  S
C1757      C1758   1.402       .  A
C1757      C1762   1.396       .  A
C1758      C1763   1.482       .  S
C1758      C1759   1.407       .  A
C1759      C1760   1.402       .  A
C1759      F1764   1.357       .  S
C1760      H1765   1.083       .  S
C1760      C1761   1.403       .  A
C1761      C1762   1.409       .  A
C1762      F1766   1.358       .  S
C1763      C1768   1.405       .  A
C1763      C1772   1.403       .  A
C1768      C1769   1.399       .  A
C1768      F1773   1.358       .  S
C1769      H1774   1.083       .  S
C1769      C1770   1.408       .  A
C1770      C1771   1.411       .  A
C1771      C1772   1.401       .  A
C1771      F1775   1.357       .  S
C1772      H1776   1.083       .  S
C1777      H1787   1.083       .  S
C1777      C1778   1.401       .  A
C1777      C1782   1.398       .  A
C1778      C1783   1.485       .  S
C1778      C1779   1.403       .  A
C1779      C1780   1.399       .  A
C1779      F1784   1.357       .  S
C1780      H1785   1.083       .  S
C1780      C1781   1.412       .  A
C1781      C1782   1.420       .  A
C1782      F1786   1.352       .  S
C1783      C1788   1.405       .  A
C1783      C1792   1.405       .  A
C1788      C1789   1.398       .  A
C1788      F1793   1.358       .  S
C1789      H1794   1.083       .  S
C1789      C1790   1.410       .  A
C1790      C1791   1.410       .  A
C1791      C1792   1.401       .  A
C1791      F1795   1.357       .  S
C1792      H1796   1.083       .  S
C1797      H1807   1.083       .  S
C1797      C1798   1.404       .  A
C1797      C1802   1.405       .  A
C1798      C1803   1.487       .  S
C1798      C1799   1.402       .  A
C1799      C1800   1.394       .  A
C1799      F1804   1.358       .  S
C1800      H1805   1.075       .  S
C1800      C1801   1.413       .  A
C1801      C1802   1.415       .  A
C1802      F1806   1.358       .  S
C1803      C1808   1.407       .  A
C1803      C1812   1.404       .  A
C1808      C1809   1.398       .  A
C1808      F1813   1.358       .  S
C1809      H1814   1.083       .  S
C1809      C1810   1.408       .  A
C1810      C1811   1.412       .  A
C1811      C1812   1.402       .  A
C1811      F1815   1.357       .  S
C1812      H1816   1.083       .  S
C1817      H1827   1.083       .  S
C1817      C1818   1.403       .  A
C1817      C1822   1.398       .  A
C1818      C1823   1.487       .  S
C1818      C1819   1.410       .  A
C1819      C1820   1.405       .  A
C1819      F1824   1.357   1_554  S
C1820      H1825   1.083   1_554  S
C1820      C1821   1.403       .  A
C1821      C1822   1.406       .  A
C1822      F1826   1.358       .  S
C1823      C1828   1.403       .  A
C1823      C1832   1.405       .  A
C1828      C1829   1.401       .  A
C1828      F1833   1.357       .  S
C1829      H1834   1.083       .  S
C1829      C1830   1.411       .  A
C1830      C1831   1.411       .  A
C1831      C1832   1.403       .  A
C1831      F1835   1.357   1_554  S
C1832      H1836   1.083   1_554  S
C1837      H1847   1.083       .  S
C1837      C1838   1.406   1_556  A
C1837      C1842   1.398       .  A
C1838      C1843   1.497       .  S
C1838      C1839   1.412       .  A
C1839      C1840   1.405       .  A
C1839      F1844   1.357       .  S
C1840      H1845   1.083       .  S
C1840      C1841   1.405       .  A
C1841      C1842   1.408   1_554  A
C1842      F1846   1.357       .  S
C1843      C1848   1.411   1_554  A
C1843      C1852   1.408       .  A
C1848      C1849   1.402       .  A
C1848      F1853   1.357       .  S
C1849      H1854   1.083       .  S
C1849      C1850   1.405   1_556  A
C1850      C1851   1.409       .  A
C1851      C1852   1.402       .  A
C1851      F1855   1.358       .  S
C1852      H1856   1.083       .  S
C1857      H1867   1.083       .  S
C1857      C1858   1.406       .  A
C1857      C1862   1.402       .  A
C1858      C1863   1.493       .  S
C1858      C1859   1.408       .  A
C1859      C1860   1.402       .  A
C1859      F1864   1.357       .  S
C1860      H1865   1.083       .  S
C1860      C1861   1.407       .  A
C1861      C1862   1.410       .  A
C1862      F1866   1.357       .  S
C1863      C1868   1.408       .  A
C1863      C1872   1.407       .  A
C1868      C1869   1.401       .  A
C1868      F1873   1.357       .  S
C1869      H1874   1.083       .  S
C1869      C1870   1.406       .  A
C1870      C1871   1.409       .  A
C1871      C1872   1.402       .  A
C1871      F1875   1.357       .  S
C1872      H1876   1.083       .  S
C1877      H1887   1.083       .  S
C1877      C1878   1.402       .  A
C1877      C1882   1.397       .  A
C1878      C1883   1.479       .  S
C1878      C1879   1.405       .  A
C1879      C1880   1.398       .  A
C1879      F1884   1.357       .  S
C1880      H1885   1.083       .  S
C1880      C1881   1.408       .  A
C1881      C1882   1.412       .  A
C1882      F1886   1.357       .  S
C1883      C1888   1.408       .  A
C1883      C1892   1.401       .  A
C1888      C1889   1.403       .  A
C1888      F1893   1.357       .  S
C1889      H1894   1.083       .  S
C1889      C1890   1.401       .  A
C1890      C1891   1.406       .  A
C1891      C1892   1.394       .  A
C1891      F1895   1.358       .  S
C1892      H1896   1.084       .  S
C1897      H1907   1.084       .  S
C1897      C1898   1.397       .  A
C1897      C1902   1.393       .  A
C1898      C1903   1.479       .  S
C1898      C1899   1.405       .  A
C1899      C1900   1.404       .  A
C1899      F1904   1.357       .  S
C1900      H1905   1.078       .  S
C1900      C1901   1.411       .  A
C1901      C1902   1.415       .  A
C1902      F1906   1.358       .  S
C1903      C1908   1.404       .  A
C1903      C1912   1.402       .  A
C1908      C1909   1.396       .  A
C1908      F1913   1.358       .  S
C1909      H1914   1.083       .  S
C1909      C1910   1.407       .  A
C1910      C1911   1.413       .  A
C1911      C1912   1.401       .  A
C1911      F1915   1.357       .  S
C1912      H1916   1.083       .  S
C1917      H1927   1.083       .  S
C1917      C1918   1.406       .  A
C1917      C1922   1.401       .  A
C1918      C1923   1.488       .  S
C1918      C1919   1.407       .  A
C1919      C1920   1.397       .  A
C1919      F1924   1.358       .  S
C1920      H1925   1.083       .  S
C1920      C1921   1.406       .  A
C1921      C1922   1.408       .  A
C1922      F1926   1.357       .  S
C1923      C1928   1.409       .  A
C1923      C1932   1.405       .  A
C1928      C1929   1.401       .  A
C1928      F1933   1.357       .  S
C1929      H1934   1.083       .  S
C1929      C1930   1.405       .  A
C1930      C1931   1.407       .  A
C1931      C1932   1.398       .  A
C1931      F1935   1.358       .  S
C1932      H1936   1.083       .  S
C1937      H1947   1.083       .  S
C1937      C1938   1.407   1_455  A
C1937      C1942   1.405       .  A
C1938      C1943   1.490       .  S
C1938      C1939   1.403       .  A
C1939      C1940   1.391       .  A
C1939      F1944   1.358       .  S
C1940      H1945   1.083       .  S
C1940      C1941   1.412       .  A
C1941      C1942   1.414   1_655  A
C1942      F1946   1.354       .  S
C1943      C1948   1.406       .  A
C1943      C1952   1.408   1_655  A
C1948      C1949   1.398       .  A
C1948      F1953   1.357       .  S
C1949      H1954   1.083       .  S
C1949      C1950   1.410       .  A
C1950      C1951   1.408   1_655  A
C1951      C1952   1.399       .  A
C1951      F1955   1.357       .  S
C1952      H1956   1.083       .  S
C1957      H1967   1.083       .  S
C1957      C1958   1.404   1_655  A
C1957      C1962   1.398       .  A
C1958      C1963   1.489       .  S
C1958      C1959   1.407       .  A
C1959      C1960   1.403       .  A
C1959      F1964   1.357       .  S
C1960      H1965   1.083       .  S
C1960      C1961   1.409       .  A
C1961      C1962   1.411   1_455  A
C1962      F1966   1.357       .  S
C1963      C1968   1.406   1_455  A
C1963      C1972   1.406       .  A
C1968      C1969   1.396       .  A
C1968      F1973   1.358       .  S
C1969      H1974   1.080       .  S
C1969      C1970   1.407   1_655  A
C1970      C1971   1.411       .  A
C1971      C1972   1.403       .  A
C1971      F1975   1.357       .  S
C1972      H1976   1.083       .  S
C1977      H1987   1.083       .  S
C1977      C1978   1.405       .  A
C1977      C1982   1.398       .  A
C1978      C1983   1.484       .  S
C1978      C1979   1.408       .  A
C1979      C1980   1.398       .  A
C1979      F1984   1.358       .  S
C1980      H1985   1.084       .  S
C1980      C1981   1.402       .  A
C1981      C1982   1.404       .  A
C1982      F1986   1.356       .  S
C1983      C1988   1.406       .  A
C1983      C1992   1.405       .  A
C1988      C1989   1.399       .  A
C1988      F1993   1.357       .  S
C1989      H1994   1.083       .  S
C1989      C1990   1.408       .  A
C1990      C1991   1.409       .  A
C1991      C1992   1.396       .  A
C1991      F1995   1.358       .  S
C1992      H1996   1.083       .  S
C1997      H2007   1.083       .  S
C1997      C1998   1.403       .  A
C1997      C2002   1.399       .  A
C1998      C2003   1.485       .  S
C1998      C1999   1.403       .  A
C1999      C2000   1.398       .  A
C1999      F2004   1.358       .  S
C2000      H2005   1.076       .  S
C2000      C2001   1.413       .  A
C2001      C2002   1.413       .  A
C2002      F2006   1.358       .  S
C2003      C2008   1.407       .  A
C2003      C2012   1.402       .  A
C2008      C2009   1.401       .  A
C2008      F2013   1.357       .  S
C2009      H2014   1.083       .  S
C2009      C2010   1.408       .  A
C2010      C2011   1.412       .  A
C2011      C2012   1.396       .  A
C2011      F2015   1.358       .  S
C2012      H2016   1.084       .  S
C2017      H2027   1.082       .  S
C2017      C2018   1.407       .  A
C2017      C2022   1.401       .  A
C2018      C2023   1.497       .  S
C2018      C2019   1.412       .  A
C2019      C2020   1.400       .  A
C2019      F2024   1.357       .  S
C2020      H2025   1.083       .  S
C2020      C2021   1.405       .  A
C2021      C2022   1.410       .  A
C2022      F2026   1.357       .  S
C2023      C2028   1.409       .  A
C2023      C2032   1.404       .  A
C2028      C2029   1.401       .  A
C2028      F2033   1.357       .  S
C2029      H2034   1.081       .  S
C2029      C2030   1.410       .  A
C2030      C2031   1.416       .  A
C2031      C2032   1.399       .  A
C2031      F2035   1.354       .  S
C2032      H2036   1.083       .  S
C2037      H2047   1.083       .  S
C2037      C2038   1.405       .  A
C2037      C2042   1.405       .  A
C2038      C2043   1.478       .  S
C2038      C2039   1.400       .  A
C2039      C2040   1.392       .  A
C2039      F2044   1.358       .  S
C2040      H2045   1.082       .  S
C2040      C2041   1.408       .  A
C2041      C2042   1.410       .  A
C2042      F2046   1.357       .  S
C2043      C2048   1.402       .  A
C2043      C2052   1.403       .  A
C2048      C2049   1.400       .  A
C2048      F2053   1.358       .  S
C2049      H2054   1.083       .  S
C2049      C2050   1.411       .  A
C2050      C2051   1.410       .  A
C2051      C2052   1.398       .  A
C2051      F2055   1.357       .  S
C2052      H2056   1.083       .  S
C2057      H2067   1.083       .  S
C2057      C2058   1.403       .  A
C2057      C2062   1.396       .  A
C2058      C2063   1.489       .  S
C2058      C2059   1.410       .  A
C2059      C2060   1.402       .  A
C2059      F2064   1.357       .  S
C2060      H2065   1.083       .  S
C2060      C2061   1.405       .  A
C2061      C2062   1.410       .  A
C2062      F2066   1.357       .  S
C2063      C2068   1.407       .  A
C2063      C2072   1.406       .  A
C2068      C2069   1.400       .  A
C2068      F2073   1.357       .  S
C2069      H2074   1.083       .  S
C2069      C2070   1.407       .  A
C2070      C2071   1.409       .  A
C2071      C2072   1.400       .  A
C2071      F2075   1.357       .  S
C2072      H2076   1.083       .  S
C2077      H2087   1.083       .  S
C2077      C2078   1.403       .  A
C2077      C2082   1.403       .  A
C2078      C2083   1.481       .  S
C2078      C2079   1.404       .  A
C2079      C2080   1.394       .  A
C2079      F2084   1.358       .  S
C2080      H2085   1.083       .  S
C2080      C2081   1.407       .  A
C2081      C2082   1.412       .  A
C2082      F2086   1.357       .  S
C2083      C2088   1.405       .  A
C2083      C2092   1.399       .  A
C2088      C2089   1.405       .  A
C2088      F2093   1.357       .  S
C2089      H2094   1.078       .  S
C2089      C2090   1.411       .  A
C2090      C2091   1.414       .  A
C2091      C2092   1.392       .  A
C2091      F2095   1.358       .  S
C2092      H2096   1.084       .  S
C2097      H2107   1.083       .  S
C2097      C2098   1.405       .  A
C2097      C2102   1.400       .  A
C2098      C2103   1.476       .  S
C2098      C2099   1.403       .  A
C2099      C2100   1.395       .  A
C2099      F2104   1.358       .  S
C2100      H2105   1.083       .  S
C2100      C2101   1.406       .  A
C2101      C2102   1.403       .  A
C2102      F2106   1.357       .  S
C2103      C2108   1.404       .  A
C2103      C2112   1.401       .  A
C2108      C2109   1.399       .  A
C2108      F2113   1.358       .  S
C2109      H2114   1.083       .  S
C2109      C2110   1.408       .  A
C2110      C2111   1.410       .  A
C2111      C2112   1.397       .  A
C2111      F2115   1.357       .  S
C2112      H2116   1.083       .  S
C2117      H2127   1.083       .  S
C2117      C2118   1.409       .  A
C2117      C2122   1.407       .  A
C2118      C2123   1.489       .  S
C2118      C2119   1.406       .  A
C2119      C2120   1.394       .  A
C2119      F2124   1.358       .  S
C2120      H2125   1.084       .  S
C2120      C2121   1.404       .  A
C2121      C2122   1.406       .  A
C2122      F2126   1.357       .  S
C2123      C2128   1.405       .  A
C2123      C2132   1.405       .  A
C2128      C2129   1.405       .  A
C2128      F2133   1.357       .  S
C2129      H2134   1.083       .  S
C2129      C2130   1.411       .  A
C2130      C2131   1.410       .  A
C2131      C2132   1.398       .  A
C2131      F2135   1.357       .  S
C2132      H2136   1.083       .  S
C2137      H2147   1.083       .  S
C2137      C2138   1.403       .  A
C2137      C2142   1.399       .  A
C2138      C2143   1.477       .  S
C2138      C2139   1.402       .  A
C2139      C2140   1.399       .  A
C2139      F2144   1.357       .  S
C2140      H2145   1.083       .  S
C2140      C2141   1.409       .  A
C2141      C2142   1.410       .  A
C2142      F2146   1.358       .  S
C2143      C2148   1.405       .  A
C2143      C2152   1.396       .  A
C2148      C2149   1.404       .  A
C2148      F2153   1.357       .  S
C2149      H2154   1.079       .  S
C2149      C2150   1.410       .  A
C2150      C2151   1.417       .  A
C2151      C2152   1.393       .  A
C2151      F2155   1.359       .  S
C2152      H2156   1.084       .  S
C2157      H2167   1.083       .  S
C2157      C2158   1.409       .  A
C2157      C2162   1.403       .  A
C2158      C2163   1.497       .  S
C2158      C2159   1.411       .  A
C2159      C2160   1.401       .  A
C2159      F2164   1.357       .  S
C2160      H2165   1.084       .  S
C2160      C2161   1.402       .  A
C2161      C2162   1.404       .  A
C2162      F2166   1.357       .  S
C2163      C2168   1.409       .  A
C2163      C2172   1.408       .  A
C2168      C2169   1.401       .  A
C2168      F2173   1.357       .  S
C2169      H2174   1.083       .  S
C2169      C2170   1.407       .  A
C2170      C2171   1.410       .  A
C2171      C2172   1.403       .  A
C2171      F2175   1.358       .  S
C2172      H2176   1.083       .  S
C2177      H2187   1.083       .  S
C2177      C2178   1.403       .  A
C2177      C2182   1.405       .  A
C2178      C2183   1.481       .  S
C2178      C2179   1.401       .  A
C2179      C2180   1.394       .  A
C2179      F2184   1.358       .  S
C2180      H2185   1.083       .  S
C2180      C2181   1.411       .  A
C2181      C2182   1.416       .  A
C2182      F2186   1.355       .  S
C2183      C2188   1.405       .  A
C2183      C2192   1.402       .  A
C2188      C2189   1.404       .  A
C2188      F2193   1.357       .  S
C2189      H2194   1.083       .  S
C2189      C2190   1.409       .  A
C2190      C2191   1.411       .  A
C2191      C2192   1.397       .  A
C2191      F2195   1.357       .  S
C2192      H2196   1.084       .  S
C2197      H2207   1.083       .  S
C2197      C2198   1.404       .  A
C2197      C2202   1.400       .  A
C2198      C2203   1.487       .  S
C2198      C2199   1.408       .  A
C2199      C2200   1.400       .  A
C2199      F2204   1.357       .  S
C2200      H2205   1.083       .  S
C2200      C2201   1.406       .  A
C2201      C2202   1.409       .  A
C2202      F2206   1.356       .  S
C2203      C2208   1.405       .  A
C2203      C2212   1.407       .  A
C2208      C2209   1.396       .  A
C2208      F2213   1.358       .  S
C2209      H2214   1.083       .  S
C2209      C2210   1.408       .  A
C2210      C2211   1.407       .  A
C2211      C2212   1.403       .  A
C2211      F2215   1.357       .  S
C2212      H2216   1.083       .  S
C2217      H2227   1.084       .  S
C2217      C2218   1.402       .  A
C2217      C2222   1.395       .  A
C2218      C2223   1.484       .  S
C2218      C2219   1.408       .  A
C2219      C2220   1.401       .  A
C2219      F2224   1.357       .  S
C2220      H2225   1.083       .  S
C2220      C2221   1.407       .  A
C2221      C2222   1.412       .  A
C2222      F2226   1.358       .  S
C2223      C2228   1.409       .  A
C2223      C2232   1.406       .  A
C2228      C2229   1.401       .  A
C2228      F2233   1.357       .  S
C2229      H2234   1.083       .  S
C2229      C2230   1.401       .  A
C2230      C2231   1.402       .  A
C2231      C2232   1.395       .  A
C2231      F2235   1.358       .  S
C2232      H2236   1.083       .  S
C2237      H2247   1.083       .  S
C2237      C2238   1.406       .  A
C2237      C2242   1.403       .  A
C2238      C2243   1.485       .  S
C2238      C2239   1.406       .  A
C2239      C2240   1.395       .  A
C2239      F2244   1.358       .  S
C2240      H2245   1.084       .  S
C2240      C2241   1.403       .  A
C2241      C2242   1.406       .  A
C2242      F2246   1.357       .  S
C2243      C2248   1.405       .  A
C2243      C2252   1.404       .  A
C2248      C2249   1.403       .  A
C2248      F2253   1.357       .  S
C2249      H2254   1.083       .  S
C2249      C2250   1.411       .  A
C2250      C2251   1.411       .  A
C2251      C2252   1.397       .  A
C2251      F2255   1.357       .  S
C2252      H2256   1.084       .  S
C2257      H2267   1.083       .  S
C2257      C2258   1.406       .  A
C2257      C2262   1.402       .  A
C2258      C2263   1.491       .  S
C2258      C2259   1.407       .  A
C2259      C2260   1.401       .  A
C2259      F2264   1.357       .  S
C2260      H2265   1.083       .  S
C2260      C2261   1.407       .  A
C2261      C2262   1.408       .  A
C2262      F2266   1.357       .  S
C2263      C2268   1.408       .  A
C2263      C2272   1.405       .  A
C2268      C2269   1.403       .  A
C2268      F2273   1.357       .  S
C2269      H2274   1.083       .  S
C2269      C2270   1.407       .  A
C2270      C2271   1.412       .  A
C2271      C2272   1.402       .  A
C2271      F2275   1.357       .  S
C2272      H2276   1.083       .  S
C2277      H2287   1.083       .  S
C2277      C2278   1.404       .  A
C2277      C2282   1.397       .  A
C2278      C2283   1.487       .  S
C2278      C2279   1.409       .  A
C2279      C2280   1.406       .  A
C2279      F2284   1.357       .  S
C2280      H2285   1.083       .  S
C2280      C2281   1.404       .  A
C2281      C2282   1.403       .  A
C2282      F2286   1.357       .  S
C2283      C2288   1.405   1_556  A
C2283      C2292   1.405       .  A
C2288      C2289   1.399       .  A
C2288      F2293   1.358       .  S
C2289      H2294   1.083       .  S
C2289      C2290   1.407   1_554  A
C2290      C2291   1.410       .  A
C2291      C2292   1.404       .  A
C2291      F2295   1.357       .  S
C2292      H2296   1.083       .  S
C2297      H2307   1.083       .  S
C2297      C2298   1.406   1_556  A
C2297      C2302   1.397       .  A
C2298      C2303   1.485       .  S
C2298      C2299   1.408       .  A
C2299      C2300   1.402       .  A
C2299      F2304   1.357       .  S
C2300      H2305   1.084       .  S
C2300      C2301   1.403   1_554  A
C2301      C2302   1.403       .  A
C2302      F2306   1.358       .  S
C2303      C2308   1.407       .  A
C2303      C2312   1.402   1_554  A
C2308      C2309   1.404       .  A
C2308      F2313   1.357       .  S
C2309      H2314   1.083       .  S
C2309      C2310   1.409       .  A
C2310      C2311   1.412   1_554  A
C2311      C2312   1.395       .  A
C2311      F2315   1.358       .  S
C2312      H2316   1.084       .  S
C2317      H2327   1.083       .  S
C2317      C2318   1.403       .  A
C2317      C2322   1.402       .  A
C2318      C2323   1.481       .  S
C2318      C2319   1.400       .  A
C2319      C2320   1.394       .  A
C2319      F2324   1.358       .  S
C2320      H2325   1.080       .  S
C2320      C2321   1.414       .  A
C2321      C2322   1.414       .  A
C2322      F2326   1.356       .  S
C2323      C2328   1.405       .  A
C2323      C2332   1.403       .  A
C2328      C2329   1.400       .  A
C2328      F2333   1.358       .  S
C2329      H2334   1.083       .  S
C2329      C2330   1.408       .  A
C2330      C2331   1.410       .  A
C2331      C2332   1.398       .  A
C2331      F2335   1.357       .  S
C2332      H2336   1.083       .  S
C2337      H2347   1.084       .  S
C2337      C2338   1.402       .  A
C2337      C2342   1.396       .  A
C2338      C2343   1.483       .  S
C2338      C2339   1.406       .  A
C2339      C2340   1.403       .  A
C2339      F2344   1.357       .  S
C2340      H2345   1.083       .  S
C2340      C2341   1.409       .  A
C2341      C2342   1.411       .  A
C2342      F2346   1.357       .  S
C2343      C2348   1.407       .  A
C2343      C2352   1.402       .  A
C2348      C2349   1.400       .  A
C2348      F2353   1.358       .  S
C2349      H2354   1.083       .  S
C2349      C2350   1.405       .  A
C2350      C2351   1.411       .  A
C2351      C2352   1.399       .  A
C2351      F2355   1.357       .  S
C2352      H2356   1.083       .  S
C2357      H2367   1.083       .  S
C2357      C2358   1.401   1_565  A
C2357      C2362   1.394       .  A
C2358      C2363   1.486       .  S
C2358      C2359   1.411       .  A
C2359      C2360   1.406       .  A
C2359      F2364   1.357       .  S
C2360      H2365   1.083       .  S
C2360      C2361   1.403   1_545  A
C2361      C2362   1.409       .  A
C2362      F2366   1.358       .  S
C2363      C2368   1.407       .  A
C2363      C2372   1.401   1_545  A
C2368      C2369   1.402       .  A
C2368      F2373   1.358       .  S
C2369      H2374   1.083       .  S
C2369      C2370   1.408       .  A
C2370      C2371   1.415   1_545  A
C2371      C2372   1.400       .  A
C2371      F2375   1.357       .  S
C2372      H2376   1.083       .  S
C2377      H2387   1.083       .  S
C2377      C2378   1.403   1_565  A
C2377      C2382   1.397       .  A
C2378      C2383   1.484       .  S
C2378      C2379   1.408       .  A
C2379      C2380   1.405       .  A
C2379      F2384   1.357       .  S
C2380      H2385   1.083       .  S
C2380      C2381   1.404       .  A
C2381      C2382   1.406   1_545  A
C2382      F2386   1.358       .  S
C2383      C2388   1.403       .  A
C2383      C2392   1.404   1_545  A
C2388      C2389   1.403       .  A
C2388      F2393   1.357       .  S
C2389      H2394   1.083       .  S
C2389      C2390   1.412       .  A
C2390      C2391   1.410   1_545  A
C2391      C2392   1.398       .  A
C2391      F2395   1.357       .  S
C2392      H2396   1.084       .  S
C2397      H2407   1.083       .  S
C2397      C2398   1.404       .  A
C2397      C2402   1.397       .  A
C2398      C2403   1.489       .  S
C2398      C2399   1.408       .  A
C2399      C2400   1.403       .  A
C2399      F2404   1.357       .  S
C2400      H2405   1.083       .  S
C2400      C2401   1.407       .  A
C2401      C2402   1.409       .  A
C2402      F2406   1.356       .  S
C2403      C2408   1.406       .  A
C2403      C2412   1.406       .  A
C2408      C2409   1.397       .  A
C2408      F2413   1.358       .  S
C2409      H2414   1.083       .  S
C2409      C2410   1.408       .  A
C2410      C2411   1.410       .  A
C2411      C2412   1.405       .  A
C2411      F2415   1.357       .  S
C2412      H2416   1.083       .  S
C2417      H2427   1.083       .  S
C2417      C2418   1.404       .  A
C2417      C2422   1.401       .  A
C2418      C2423   1.477       .  S
C2418      C2419   1.403       .  A
C2419      C2420   1.399       .  A
C2419      F2424   1.358       .  S
C2420      H2425   1.083       .  S
C2420      C2421   1.404       .  A
C2421      C2422   1.404       .  A
C2422      F2426   1.357       .  S
C2423      C2428   1.401       .  A
C2423      C2432   1.402       .  A
C2428      C2429   1.395       .  A
C2428      F2433   1.358       .  S
C2429      H2434   1.083       .  S
C2429      C2430   1.408       .  A
C2430      C2431   1.413       .  A
C2431      C2432   1.404       .  A
C2431      F2435   1.357       .  S
C2432      H2436   1.083       .  S
C2437      H2447   1.083       .  S
C2437      C2438   1.401       .  A
C2437      C2442   1.402       .  A
C2438      C2443   1.485       .  S
C2438      C2439   1.405       .  A
C2439      C2440   1.404       .  A
C2439      F2444   1.357       .  S
C2440      H2445   1.083       .  S
C2440      C2441   1.410       .  A
C2441      C2442   1.414       .  A
C2442      F2446   1.357       .  S
C2443      C2448   1.402       .  A
C2443      C2452   1.406       .  A
C2448      C2449   1.398       .  A
C2448      F2453   1.357       .  S
C2449      H2454   1.083       .  S
C2449      C2450   1.409       .  A
C2450      C2451   1.410       .  A
C2451      C2452   1.408       .  A
C2451      F2455   1.357       .  S
C2452      H2456   1.083       .  S
C2457      H2467   1.083   1_556  S
C2457      C2458   1.406       .  A
C2457      C2462   1.399       .  A
C2458      C2463   1.496       .  S
C2458      C2459   1.412       .  A
C2459      C2460   1.402       .  A
C2459      F2464   1.357       .  S
C2460      H2465   1.083       .  S
C2460      C2461   1.404       .  A
C2461      C2462   1.406       .  A
C2462      F2466   1.356   1_556  S
C2463      C2468   1.412       .  A
C2463      C2472   1.406       .  A
C2468      C2469   1.404       .  A
C2468      F2473   1.357       .  S
C2469      H2474   1.083       .  S
C2469      C2470   1.404       .  A
C2470      C2471   1.409       .  A
C2471      C2472   1.400       .  A
C2471      F2475   1.358       .  S
C2472      H2476   1.083       .  S
C2477      H2487   1.083       .  S
C2477      C2478   1.404   1_554  A
C2477      C2482   1.397       .  A
C2478      C2483   1.479       .  S
C2478      C2479   1.405       .  A
C2479      C2480   1.395       .  A
C2479      F2484   1.358       .  S
C2480      H2485   1.083       .  S
C2480      C2481   1.408       .  A
C2481      C2482   1.410   1_556  A
C2482      F2486   1.357       .  S
C2483      C2488   1.402   1_556  A
C2483      C2492   1.402       .  A
C2488      C2489   1.393       .  A
C2488      F2493   1.358       .  S
C2489      H2494   1.075       .  S
C2489      C2490   1.412   1_554  A
C2490      C2491   1.413       .  A
C2491      C2492   1.398       .  A
C2491      F2495   1.358       .  S
C2492      H2496   1.083       .  S
C2497      H2507   1.083       .  S
C2497      C2498   1.399       .  A
C2497      C2502   1.401       .  A
C2498      C2503   1.473       .  S
C2498      C2499   1.403       .  A
C2499      C2500   1.397       .  A
C2499      F2504   1.358       .  S
C2500      H2505   1.083       .  S
C2500      C2501   1.407       .  A
C2501      C2502   1.415       .  A
C2502      F2506   1.358       .  S
C2503      C2508   1.405       .  A
C2503      C2512   1.400       .  A
C2508      C2509   1.402       .  A
C2508      F2513   1.357       .  S
C2509      H2514   1.083       .  S
C2509      C2510   1.402       .  A
C2510      C2511   1.407       .  A
C2511      C2512   1.396       .  A
C2511      F2515   1.358       .  S
C2512      H2516   1.084       .  S
C2517      H2527   1.083       .  S
C2517      C2518   1.407       .  A
C2517      C2522   1.404       .  A
C2518      C2523   1.492       .  S
C2518      C2519   1.407       .  A
C2519      C2520   1.400       .  A
C2519      F2524   1.357       .  S
C2520      H2525   1.083       .  S
C2520      C2521   1.408       .  A
C2521      C2522   1.411       .  A
C2522      F2526   1.357       .  S
C2523      C2528   1.410       .  A
C2523      C2532   1.406       .  A
C2528      C2529   1.404       .  A
C2528      F2533   1.357       .  S
C2529      H2534   1.083       .  S
C2529      C2530   1.403       .  A
C2530      C2531   1.403       .  A
C2531      C2532   1.399       .  A
C2531      F2535   1.357       .  S
C2532      H2536   1.083       .  S
C2537      H2547   1.083       .  S
C2537      C2538   1.402       .  A
C2537      C2542   1.397       .  A
C2538      C2543   1.490       .  S
C2538      C2539   1.409       .  A
C2539      C2540   1.405       .  A
C2539      F2544   1.357       .  S
C2540      H2545   1.083       .  S
C2540      C2541   1.410       .  A
C2541      C2542   1.412       .  A
C2542      F2546   1.357       .  S
C2543      C2548   1.404       .  A
C2543      C2552   1.404       .  A
C2548      C2549   1.401       .  A
C2548      F2553   1.358       .  S
C2549      H2554   1.076       .  S
C2549      C2550   1.415       .  A
C2550      C2551   1.413       .  A
C2551      C2552   1.401       .  A
C2551      F2555   1.357       .  S
C2552      H2556   1.083       .  S
C2557      H2567   1.083       .  S
C2557      C2558   1.407       .  A
C2557      C2562   1.409       .  A
C2558      C2563   1.490       .  S
C2558      C2559   1.405       .  A
C2559      C2560   1.393       .  A
C2559      F2564   1.358       .  S
C2560      H2565   1.083       .  S
C2560      C2561   1.407       .  A
C2561      C2562   1.414       .  A
C2562      F2566   1.357       .  S
C2563      C2568   1.409       .  A
C2563      C2572   1.406       .  A
C2568      C2569   1.405       .  A
C2568      F2573   1.357       .  S
C2569      H2574   1.083       .  S
C2569      C2570   1.405       .  A
C2570      C2571   1.405       .  A
C2571      C2572   1.397       .  A
C2571      F2575   1.358       .  S
C2572      H2576   1.083       .  S
C2577      H2587   1.083       .  S
C2577      C2578   1.402       .  A
C2577      C2582   1.398       .  A
C2578      C2583   1.479       .  S
C2578      C2579   1.406       .  A
C2579      C2580   1.399       .  A
C2579      F2584   1.358       .  S
C2580      H2585   1.083       .  S
C2580      C2581   1.403       .  A
C2581      C2582   1.405       .  A
C2582      F2586   1.355       .  S
C2583      C2588   1.403       .  A
C2583      C2592   1.402       .  A
C2588      C2589   1.401       .  A
C2588      F2593   1.357       .  S
C2589      H2594   1.083       .  S
C2589      C2590   1.409       .  A
C2590      C2591   1.411       .  A
C2591      C2592   1.396       .  A
C2591      F2595   1.358       .  S
C2592      H2596   1.084       .  S
C2597      H2607   1.083       .  S
C2597      C2598   1.408       .  A
C2597      C2602   1.402       .  A
C2598      C2603   1.502       .  S
C2598      C2599   1.413       .  A
C2599      C2600   1.407       .  A
C2599      F2604   1.357       .  S
C2600      H2605   1.083       .  S
C2600      C2601   1.403       .  A
C2601      C2602   1.405       .  A
C2602      F2606   1.358       .  S
C2603      C2608   1.410       .  A
C2603      C2612   1.409       .  A
C2608      C2609   1.403       .  A
C2608      F2613   1.357       .  S
C2609      H2614   1.083       .  S
C2609      C2610   1.408       .  A
C2610      C2611   1.411       .  A
C2611      C2612   1.405       .  A
C2611      F2615   1.357       .  S
C2612      H2616   1.083       .  S
C2617      H2627   1.083       .  S
C2617      C2618   1.405       .  A
C2617      C2622   1.399       .  A
C2618      C2623   1.492       .  S
C2618      C2619   1.410       .  A
C2619      C2620   1.407       .  A
C2619      F2624   1.357       .  S
C2620      H2625   1.083       .  S
C2620      C2621   1.406       .  A
C2621      C2622   1.407       .  A
C2622      F2626   1.358       .  S
C2623      C2628   1.406       .  A
C2623      C2632   1.404       .  A
C2628      C2629   1.406       .  A
C2628      F2633   1.357       .  S
C2629      H2634   1.083       .  S
C2629      C2630   1.411       .  A
C2630      C2631   1.412       .  A
C2631      C2632   1.400       .  A
C2631      F2635   1.357       .  S
C2632      H2636   1.083       .  S
C2637      H2647   1.083       .  S
C2637      C2638   1.407       .  A
C2637      C2642   1.405       .  A
C2638      C2643   1.487       .  S
C2638      C2639   1.404       .  A
C2639      C2640   1.394       .  A
C2639      F2644   1.358       .  S
C2640      H2645   1.083       .  S
C2640      C2641   1.409       .  A
C2641      C2642   1.411       .  A
C2642      F2646   1.357       .  S
C2643      C2648   1.403       .  A
C2643      C2652   1.402       .  A
C2648      C2649   1.396       .  A
C2648      F2653   1.358       .  S
C2649      H2654   1.084       .  S
C2649      C2650   1.412       .  A
C2650      C2651   1.420       .  A
C2651      C2652   1.403       .  A
C2651      F2655   1.351       .  S
C2652      H2656   1.083       .  S
C2657      H2667   1.083       .  S
C2657      C2658   1.408       .  A
C2657      C2662   1.403       .  A
C2658      C2663   1.491       .  S
C2658      C2659   1.406       .  A
C2659      C2660   1.396       .  A
C2659      F2664   1.357       .  S
C2660      H2665   1.082       .  S
C2660      C2661   1.407       .  A
C2661      C2662   1.409       .  A
C2662      F2666   1.357       .  S
C2663      C2668   1.408       .  A
C2663      C2672   1.408       .  A
C2668      C2669   1.399       .  A
C2668      F2673   1.358       .  S
C2669      H2674   1.083       .  S
C2669      C2670   1.406       .  A
C2670      C2671   1.405       .  A
C2671      C2672   1.401       .  A
C2671      F2675   1.357       .  S
C2672      H2676   1.083       .  S
C2677      H2687   1.083       .  S
C2677      C2678   1.403       .  A
C2677      C2682   1.398       .  A
C2678      C2683   1.489       .  S
C2678      C2679   1.405       .  A
C2679      C2680   1.401       .  A
C2679      F2684   1.358       .  S
C2680      H2685   1.076       .  S
C2680      C2681   1.414       .  A
C2681      C2682   1.413       .  A
C2682      F2686   1.358       .  S
C2683      C2688   1.406       .  A
C2683      C2692   1.407       .  A
C2688      C2689   1.397       .  A
C2688      F2693   1.358       .  S
C2689      H2694   1.083       .  S
C2689      C2690   1.408       .  A
C2690      C2691   1.411       .  A
C2691      C2692   1.404       .  A
C2691      F2695   1.357       .  S
C2692      H2696   1.083       .  S
C2697      H2707   1.083       .  S
C2697      C2698   1.408       .  A
C2697      C2702   1.396       .  A
C2698      C2703   1.491       .  S
C2698      C2699   1.410       .  A
C2699      C2700   1.403       .  A
C2699      F2704   1.357       .  S
C2700      H2705   1.083       .  S
C2700      C2701   1.405       .  A
C2701      C2702   1.402       .  A
C2702      F2706   1.358       .  S
C2703      C2708   1.405       .  A
C2703      C2712   1.408       .  A
C2708      C2709   1.391       .  A
C2708      F2713   1.358       .  S
C2709      H2714   1.082       .  S
C2709      C2710   1.408       .  A
C2710      C2711   1.410       .  A
C2711      C2712   1.407       .  A
C2711      F2715   1.356       .  S
C2712      H2716   1.083       .  S
C2717      H2727   1.083       .  S
C2717      C2718   1.403       .  A
C2717      C2722   1.400       .  A
C2718      C2723   1.483       .  S
C2718      C2719   1.406       .  A
C2719      C2720   1.398       .  A
C2719      F2724   1.357       .  S
C2720      H2725   1.083       .  S
C2720      C2721   1.406       .  A
C2721      C2722   1.412       .  A
C2722      F2726   1.358       .  S
C2723      C2728   1.408       .  A
C2723      C2732   1.403       .  A
C2728      C2729   1.401       .  A
C2728      F2733   1.357       .  S
C2729      H2734   1.083       .  S
C2729      C2730   1.404       .  A
C2730      C2731   1.407       .  A
C2731      C2732   1.397       .  A
C2731      F2735   1.357       .  S
C2732      H2736   1.083       .  S
C2737      H2747   1.083       .  S
C2737      C2738   1.406       .  A
C2737      C2742   1.401       .  A
C2738      C2743   1.485       .  S
C2738      C2739   1.405       .  A
C2739      C2740   1.396       .  A
C2739      F2744   1.357       .  S
C2740      H2745   1.083       .  S
C2740      C2741   1.407       .  A
C2741      C2742   1.409       .  A
C2742      F2746   1.357       .  S
C2743      C2748   1.405       .  A
C2743      C2752   1.407       .  A
C2748      C2749   1.394       .  A
C2748      F2753   1.358       .  S
C2749      H2754   1.084       .  S
C2749      C2750   1.407       .  A
C2750      C2751   1.406       .  A
C2751      C2752   1.403       .  A
C2751      F2755   1.356       .  S
C2752      H2756   1.083       .  S
C2757      H2767   1.083       .  S
C2757      C2758   1.400       .  A
C2757      C2762   1.400       .  A
C2758      C2763   1.479       .  S
C2758      C2759   1.403       .  A
C2759      C2760   1.401       .  A
C2759      F2764   1.357       .  S
C2760      H2765   1.083       .  S
C2760      C2761   1.409       .  A
C2761      C2762   1.414       .  A
C2762      F2766   1.358       .  S
C2763      C2768   1.401       .  A
C2763      C2772   1.400       .  A
C2768      C2769   1.400       .  A
C2768      F2773   1.358       .  S
C2769      H2774   1.076       .  S
C2769      C2770   1.414       .  A
C2770      C2771   1.415       .  A
C2771      C2772   1.401       .  A
C2771      F2775   1.358       .  S
C2772      H2776   1.083       .  S
C2777      H2787   1.083       .  S
C2777      C2778   1.404       .  A
C2777      C2782   1.398       .  A
C2778      C2783   1.483       .  S
C2778      C2779   1.405       .  A
C2779      C2780   1.398       .  A
C2779      F2784   1.357       .  S
C2780      H2785   1.083       .  S
C2780      C2781   1.408       .  A
C2781      C2782   1.410       .  A
C2782      F2786   1.357       .  S
C2783      C2788   1.406       .  A
C2783      C2792   1.401       .  A
C2788      C2789   1.401       .  A
C2788      F2793   1.358       .  S
C2789      H2794   1.077       .  S
C2789      C2790   1.411       .  A
C2790      C2791   1.414       .  A
C2791      C2792   1.395       .  A
C2791      F2795   1.358       .  S
C2792      H2796   1.083       .  S
C2797      H2807   1.083       .  S
C2797      C2798   1.408       .  A
C2797      C2802   1.403       .  A
C2798      C2803   1.480       .  S
C2798      C2799   1.404       .  A
C2799      C2800   1.393       .  A
C2799      F2804   1.358       .  S
C2800      H2805   1.084       .  S
C2800      C2801   1.403       .  A
C2801      C2802   1.402       .  A
C2802      F2806   1.357       .  S
C2803      C2808   1.407       .  A
C2803      C2812   1.401       .  A
C2808      C2809   1.396       .  A
C2808      F2813   1.358   1_565  S
C2809      H2814   1.083       .  S
C2809      C2810   1.405       .  A
C2810      C2811   1.414       .  A
C2811      C2812   1.400       .  A
C2811      F2815   1.357       .  S
C2812      H2816   1.083       .  S
C2817      H2827   1.083       .  S
C2817      C2818   1.407       .  A
C2817      C2822   1.399       .  A
C2818      C2823   1.492       .  S
C2818      C2819   1.411   1_565  A
C2819      C2820   1.400       .  A
C2819      F2824   1.357       .  S
C2820      H2825   1.083       .  S
C2820      C2821   1.404   1_545  A
C2821      C2822   1.407       .  A
C2822      F2826   1.357       .  S
C2823      C2828   1.410   1_565  A
C2823      C2832   1.408       .  A
C2828      C2829   1.400       .  A
C2828      F2833   1.357       .  S
C2829      H2834   1.083       .  S
C2829      C2830   1.404   1_545  A
C2830      C2831   1.403       .  A
C2831      C2832   1.399       .  A
C2831      F2835   1.357       .  S
C2832      H2836   1.083       .  S
C2837      H2847   1.083       .  S
C2837      C2838   1.400       .  A
C2837      C2842   1.400       .  A
C2838      C2843   1.478       .  S
C2838      C2839   1.401       .  A
C2839      C2840   1.397       .  A
C2839      F2844   1.358       .  S
C2840      H2845   1.075       .  S
C2840      C2841   1.414       .  A
C2841      C2842   1.414       .  A
C2842      F2846   1.358       .  S
C2843      C2848   1.402       .  A
C2843      C2852   1.403       .  A
C2848      C2849   1.397       .  A
C2848      F2853   1.358       .  S
C2849      H2854   1.083       .  S
C2849      C2850   1.410       .  A
C2850      C2851   1.411       .  A
C2851      C2852   1.401       .  A
C2851      F2855   1.357       .  S
C2852      H2856   1.083       .  S
C2857      H2867   1.082       .  S
C2857      C2858   1.408       .  A
C2857      C2862   1.402       .  A
C2858      C2863   1.498       .  S
C2858      C2859   1.411       .  A
C2859      C2860   1.401       .  A
C2859      F2864   1.357       .  S
C2860      H2865   1.083       .  S
C2860      C2861   1.405       .  A
C2861      C2862   1.408       .  A
C2862      F2866   1.358       .  S
C2863      C2868   1.411       .  A
C2863      C2872   1.406       .  A
C2868      C2869   1.405       .  A
C2868      F2873   1.357       .  S
C2869      H2874   1.082       .  S
C2869      C2870   1.407       .  A
C2870      C2871   1.410       .  A
C2871      C2872   1.398       .  A
C2871      F2875   1.357       .  S
C2872      H2876   1.082       .  S
C2877      H2887   1.083       .  S
C2877      C2878   1.404       .  A
C2877      C2882   1.403       .  A
C2878      C2883   1.487       .  S
C2878      C2879   1.405       .  A
C2879      C2880   1.400       .  A
C2879      F2884   1.357       .  S
C2880      H2885   1.083       .  S
C2880      C2881   1.409       .  A
C2881      C2882   1.412       .  A
C2882      F2886   1.357       .  S
C2883      C2888   1.406       .  A
C2883      C2892   1.406       .  A
C2888      C2889   1.401       .  A
C2888      F2893   1.357       .  S
C2889      H2894   1.083       .  S
C2889      C2890   1.405       .  A
C2890      C2891   1.405       .  A
C2891      C2892   1.402       .  A
C2891      F2895   1.357       .  S
C2892      H2896   1.083       .  S
C2897      H2907   1.083       .  S
C2897      C2898   1.406       .  A
C2897      C2902   1.402       .  A
C2898      C2903   1.488       .  S
C2898      C2899   1.405       .  A
C2899      C2900   1.401       .  A
C2899      F2904   1.357       .  S
C2900      H2905   1.083       .  S
C2900      C2901   1.409       .  A
C2901      C2902   1.410       .  A
C2902      F2906   1.357       .  S
C2903      C2908   1.402       .  A
C2903      C2912   1.407       .  A
C2908      C2909   1.396       .  A
C2908      F2913   1.358       .  S
C2909      H2914   1.068       .  S
C2909      C2910   1.406       .  A
C2910      C2911   1.412       .  A
C2911      C2912   1.406       .  A
C2911      F2915   1.357       .  S
C2912      H2916   1.083       .  S
C2917      H2927   1.083       .  S
C2917      C2918   1.406       .  A
C2917      C2922   1.402       .  A
C2918      C2923   1.495       .  S
C2918      C2919   1.410       .  A
C2919      C2920   1.399       .  A
C2919      F2924   1.358       .  S
C2920      H2925   1.083       .  S
C2920      C2921   1.408       .  A
C2921      C2922   1.411       .  A
C2922      F2926   1.357       .  S
C2923      C2928   1.410       .  A
C2923      C2932   1.404       .  A
C2928      C2929   1.404       .  A
C2928      F2933   1.357       .  S
C2929      H2934   1.082       .  S
C2929      C2930   1.407       .  A
C2930      C2931   1.412       .  A
C2931      C2932   1.396       .  A
C2931      F2935   1.356       .  S
C2932      H2936   1.083       .  S
C2937      H2947   1.083       .  S
C2937      C2938   1.407       .  A
C2937      C2942   1.401       .  A
C2938      C2943   1.497       .  S
C2938      C2939   1.413       .  A
C2939      C2940   1.402       .  A
C2939      F2944   1.357       .  S
C2940      H2945   1.084       .  S
C2940      C2941   1.401       .  A
C2941      C2942   1.405       .  A
C2942      F2946   1.358       .  S
C2943      C2948   1.413       .  A
C2943      C2952   1.404       .  A
C2948      C2949   1.405       .  A
C2948      F2953   1.357       .  S
C2949      H2954   1.083       .  S
C2949      C2950   1.404       .  A
C2950      C2951   1.411       .  A
C2951      C2952   1.399       .  A
C2951      F2955   1.358       .  S
C2952      H2956   1.083       .  S
C2957      H2967   1.083       .  S
C2957      C2958   1.405       .  A
C2957      C2962   1.404       .  A
C2958      C2963   1.489       .  S
C2958      C2959   1.407       .  A
C2959      C2960   1.398       .  A
C2959      F2964   1.358       .  S
C2960      H2965   1.083       .  S
C2960      C2961   1.406       .  A
C2961      C2962   1.410       .  A
C2962      F2966   1.357       .  S
C2963      C2968   1.409       .  A
C2963      C2972   1.405       .  A
C2968      C2969   1.401       .  A
C2968      F2973   1.357       .  S
C2969      H2974   1.083       .  S
C2969      C2970   1.402       .  A
C2970      C2971   1.405       .  A
C2971      C2972   1.402       .  A
C2971      F2975   1.357       .  S
C2972      H2976   1.083       .  S
