geometry optimzed in LAMMPS
_audit_creation_date              2020-11-30 
_audit_creation_method            'lammps2cif' 
_symmetry_space_group_name_H-M    'P1' 
_symmetry_Int_Tables_number       1 
_symmetry_cell_setting            triclinic 
loop_ 
_symmetry_equiv_pos_as_xyz 
  x,y,z 
_cell_length_a                    31.43991382 
_cell_length_b                    31.478542407912837 
_cell_length_c                    31.547695490848213 
_cell_angle_alpha                 89.37473419183378 
_cell_angle_beta                  90.37848405847501 
_cell_angle_gamma                 90.7122619059457 
loop_ 
_atom_site_label 
_atom_site_type_symbol 
_atom_site_fract_x 
_atom_site_fract_y 
_atom_site_fract_z 
_atom_site_charge 
N1          N  0.54053218  0.64553295  0.96625584    -0.26700
N2          N  0.51846416  0.67628200  0.98346248    -0.34500
C3          C  0.54542861  0.70837833  0.99333572     0.01700
C4          C  0.58637730  0.69661382  0.98259008     0.07700
C5          C  0.58197511  0.65657285  0.96562863    -0.05400
H6          H  0.53635700  0.73693850  0.00955771     0.08400
H7          H  0.60725512  0.63600009  0.95562525     0.09600
Cu8        Cu  0.45401417  0.66866207  0.99866289     0.41200
Cu9        Cu  0.51555331  0.58614312  0.95443148     0.42000
Cu10       Cu  0.41723245  0.55897512  0.00584025     0.43900
N11         N  0.39151938  0.65010423  0.01338836    -0.34100
N12         N  0.37754640  0.61026165  0.01410396    -0.28300
C13         C  0.33696143  0.60915523  0.02767795    -0.04400
C14         C  0.32496590  0.65020919  0.03647653     0.07800
C15         C  0.36034347  0.67523792  0.02714883     0.01600
H16         H  0.31908022  0.58033937  0.03455713     0.09200
H17         H  0.36400564  0.70899075  0.03250784     0.08300
N18         N  0.46988176  0.51998267  0.00604157    -0.35500
N19         N  0.50442539  0.52874835  0.98380822    -0.27700
C20         C  0.53673097  0.50553927  0.99886191    -0.02900
C21         C  0.52235570  0.48160859  0.03278264     0.05700
C22         C  0.47969370  0.49120050  0.03629108     0.03800
H23         H  0.56974617  0.51185126  0.99128230     0.08900
H24         H  0.45937456  0.48321447  0.06282669     0.07700
N25         N  0.62704950  0.27032262  0.26139502    -0.26700
N26         N  0.65150847  0.23838259  0.25069507    -0.34500
C27         C  0.62667278  0.20329637  0.24641394     0.01700
C28         C  0.58472889  0.21440248  0.25403792     0.07700
C29         C  0.58641594  0.25702988  0.26340962    -0.05400
H30         H  0.63776349  0.17289652  0.23563790     0.08400
H31         H  0.55967641  0.27766227  0.26851805     0.09600
Cu32       Cu  0.71604240  0.24831684  0.23600069     0.44200
Cu33       Cu  0.64636964  0.33275763  0.26059274     0.42000
Cu34       Cu  0.74254021  0.35848810  0.20722883     0.43900
N35         N  0.77751955  0.27074102  0.22095752    -0.34100
N36         N  0.78730877  0.31087490  0.21212513    -0.28300
C37         C  0.82802506  0.31350116  0.19915524    -0.04400
C38         C  0.84490956  0.27315285  0.19954217     0.07800
C39         C  0.81180819  0.24693762  0.21329823     0.01600
H40         H  0.84234666  0.34170736  0.18511905     0.09200
H41         H  0.81138575  0.21257935  0.21338517     0.08300
N42         N  0.68731439  0.39297486  0.19915194    -0.35500
N43         N  0.65275678  0.38472780  0.22149755    -0.27700
C44         C  0.61953094  0.40437410  0.20350747    -0.02900
C45         C  0.63364591  0.42589199  0.16796570     0.05700
C46         C  0.67681967  0.41816582  0.16604799     0.03800
H47         H  0.58669528  0.39825383  0.21191761     0.08900
H48         H  0.69770982  0.42576764  0.13985363     0.07700
N49         N  0.75878199  0.09417040  0.59649193    -0.26700
N50         N  0.79167421  0.08363965  0.57310309    -0.34500
C51         C  0.82600690  0.07966017  0.59881843     0.01700
C52         C  0.81331142  0.08708246  0.64017584     0.07700
C53         C  0.77064522  0.09605874  0.63730473    -0.05400
H54         H  0.85704175  0.06954837  0.58864282     0.08400
H55         H  0.74918111  0.10164874  0.66328128     0.09600
Cu56       Cu  0.78439309  0.06930331  0.50860807     0.44200
Cu57       Cu  0.69695943  0.09581030  0.57542311     0.42000
Cu58       Cu  0.67330707  0.05098414  0.47626969     0.43900
N59         N  0.76419560  0.05539226  0.44662439    -0.34100
N60         N  0.72388979  0.05158238  0.43465221    -0.28300
C61         C  0.72207080  0.03949132  0.39387804    -0.04400
C62         C  0.76308023  0.03496183  0.37941573     0.07800
C63         C  0.78892928  0.04488461  0.41378773     0.01600
H64         H  0.69316966  0.02975519  0.37767070     0.09200
H65         H  0.82308329  0.04149903  0.41572632     0.08300
N66         N  0.63569313  0.04049331  0.52897412    -0.35500
N67         N  0.64315473  0.06007997  0.56508897    -0.27700
C68         C  0.62259424  0.03955433  0.59642670    -0.02900
C69         C  0.60178218  0.00482911  0.57953719     0.05700
C70         C  0.61041668  0.00649552  0.53654609     0.03800
H71         H  0.62856321  0.04494179  0.62976766     0.08900
H72         H  0.60408239  0.98161600  0.51388319     0.07700
N73         N  0.38696851  0.79970106  0.64697500    -0.26700
N74         N  0.35573758  0.81539834  0.66963959    -0.34500
C75         C  0.32412266  0.82699230  0.64285444     0.01700
C76         C  0.33688858  0.81918237  0.60155948     0.07700
C77         C  0.37686022  0.80199264  0.60554525    -0.05400
H78         H  0.29515926  0.84230379  0.65242944     0.08400
H79         H  0.39781671  0.79323843  0.58010044     0.09600
Cu80       Cu  0.36230632  0.82606770  0.73527145     0.44200
Cu81       Cu  0.44560721  0.78441601  0.67169995     0.42000
Cu82       Cu  0.47064574  0.81948166  0.77645276     0.43900
N83         N  0.38010660  0.83769265  0.79877324    -0.34100
N84         N  0.41910302  0.83313128  0.81412865    -0.28300
C85         C  0.42080211  0.84759441  0.85421196    -0.04400
C86         C  0.38113738  0.86257650  0.86462441     0.07800
C87         C  0.35621682  0.85571617  0.82873514     0.01600
H88         H  0.44982887  0.85144747  0.87246887     0.09200
H89         H  0.32391106  0.86623726  0.82363833     0.08300
N90         N  0.51271217  0.82400074  0.72642683    -0.35500
N91         N  0.50429208  0.80805083  0.68869613    -0.27700
C92         C  0.52927646  0.82725265  0.65985493    -0.02900
C93         C  0.55370134  0.85776611  0.67985630     0.05700
C94         C  0.54295613  0.85432925  0.72226755     0.03800
H95         H  0.52354169  0.82568221  0.62605082     0.08900
H96         H  0.55066377  0.87722454  0.74655607     0.07700
O97         O  0.70383764  0.98982696  0.99984305    -0.72300
O98         O  0.77674091  0.09530494  0.01108250    -0.73300
O99         O  0.74511111  0.04811681  0.94101233    -0.61900
O100        O  0.73579667  0.03886989  0.06828356    -0.70300
O101        O  0.79540601  0.00186056  0.06991226    -0.69900
O102        O  0.80264242  0.00810058  0.94293417    -0.61100
O103        O  0.83471448  0.05671817  0.01110461    -0.73700
O104        O  0.76286081  0.95186297  0.00337585    -0.72400
Cu105      Cu  0.73820518  0.04429045  0.00459742     1.04600
Cu106      Cu  0.80070033  0.00311159  0.00654968     1.04300
C107        C  0.72233478  0.95395641  0.00248365     0.93900
C108        C  0.81721300  0.09283299  0.01439667     0.93000
C109        C  0.77630219  0.03098241  0.92210354     0.85100
C110        C  0.76496812  0.01982397  0.08918575     0.91400
C111        C  0.77276131  0.99385439  0.27000451     0.80800
N112        N  0.79509232  0.95796876  0.27777367    -0.77500
C113        C  0.80814215  0.94805605  0.31762075     0.83300
N114        N  0.79905472  0.97462167  0.34972982    -0.77400
C115        C  0.77550014  0.00975175  0.34276993     0.83400
N116        N  0.76210622  0.01951165  0.30271370    -0.79100
C117        C  0.95103306  0.26132689  0.14874951     0.80800
N118        N  0.93967339  0.23512302  0.11628954    -0.77500
C119        C  0.89881292  0.22139232  0.11168880     0.83300
N120        N  0.86982759  0.23197373  0.14102938    -0.77400
C121        C  0.87976136  0.25914773  0.17243477     0.83400
N122        N  0.92025272  0.27479501  0.17582565    -0.79100
O123        O  0.17000567  0.07189272  0.88125443    -0.72300
O124        O  0.06874095  0.10521874  0.81349949    -0.73300
O125        O  0.10870674  0.02713448  0.83435746    -0.61900
O126        O  0.13179343  0.15061554  0.86069921    -0.70300
O127        O  0.17075517  0.15695067  0.80250773    -0.69900
O128        O  0.14928097  0.03240254  0.77722716    -0.61100
O129        O  0.10737744  0.10991087  0.75494638    -0.73700
O130        O  0.21027398  0.07732912  0.82398859    -0.72400
Cu131      Cu  0.11832487  0.08893041  0.84927571     1.04600
Cu132      Cu  0.16072884  0.09485661  0.78754364     1.04300
C133        C  0.20535971  0.06615454  0.86277149     0.93900
C134        C  0.07140515  0.11118989  0.77354485     0.93000
C135        C  0.12695509  0.00982411  0.80287844     0.85100
C136        C  0.15572110  0.17293522  0.83630667     0.91400
C137        C  0.20794660  0.41671475  0.89781309     0.80800
N138        N  0.20141813  0.37861138  0.87810695    -0.77500
C139        C  0.19976406  0.34156723  0.90092307     0.83300
N140        N  0.20599743  0.34330369  0.94338362    -0.77400
C141        C  0.21443068  0.38050323  0.96309325     0.83400
N142        N  0.21446099  0.41753434  0.94052255    -0.79100
C143        C  0.37808609  0.91575260  0.97015941     0.80800
N144        N  0.35011203  0.94708381  0.96095903    -0.77500
C145        C  0.33347158  0.95135228  0.92161987     0.83300
N146        N  0.34288048  0.92289083  0.89147845    -0.77400
C147        C  0.37062480  0.89122590  0.89968685     0.83400
N148        N  0.38887470  0.88784052  0.93908169    -0.79100
O149        O  0.40533306  0.96656839  0.24752946    -0.72300
O150        O  0.31906043  0.87747886  0.21897425    -0.73300
O151        O  0.35102722  0.91207533  0.29604765    -0.61900
O152        O  0.37317889  0.93035482  0.17124567    -0.70300
O153        O  0.42203785  0.88011244  0.17352578    -0.69900
O154        O  0.40361003  0.86628421  0.29948032    -0.61100
O155        O  0.36914287  0.82852351  0.22414611    -0.73700
O156        O  0.45720162  0.91927583  0.24737824    -0.72400
Cu157      Cu  0.36054269  0.92340549  0.23369624     1.04600
Cu158      Cu  0.41483568  0.87190090  0.23658133     1.04300
C159        C  0.44470802  0.95756537  0.25045895     0.93900
C160        C  0.33104028  0.83920922  0.21493876     0.93000
C161        C  0.37371168  0.88616799  0.31773439     0.85100
C162        C  0.39956270  0.90652543  0.15233315     0.91400
O163        O  0.03532347  0.88917908  0.40202850    -0.72300
O164        O  0.01932804  0.76440949  0.38139927    -0.73300
O165        O  0.97449890  0.83850130  0.35985127    -0.61900
O166        O  0.08097951  0.81545696  0.42517089    -0.70300
O167        O  0.04436290  0.81147837  0.48502300    -0.69900
O168        O  0.93726529  0.83141193  0.41848506    -0.61100
O169        O  0.98379849  0.75703058  0.44118291    -0.73700
O170        O  0.99641820  0.88453293  0.46036458    -0.72400
Cu171      Cu  0.02891064  0.82680766  0.39026028     1.04600
Cu172      Cu  0.98925853  0.82054964  0.45346545     1.04300
C173        C  0.01742744  0.90688257  0.43335997     0.93900
C174        C  0.99825061  0.74082117  0.40711917     0.93000
C175        C  0.93889794  0.84003681  0.37888523     0.85100
C176        C  0.07982913  0.81161770  0.46550618     0.91400
O177        O  0.27734374  0.22139684  0.17645487    -0.72300
O178        O  0.15382670  0.24288580  0.15490248    -0.73300
O179        O  0.23052831  0.27366906  0.11906711    -0.61900
O180        O  0.19946579  0.19206377  0.21216073    -0.70300
O181        O  0.20258983  0.24466650  0.25827788    -0.69900
O182        O  0.23044086  0.32712373  0.16446210    -0.61100
O183        O  0.15449359  0.29469421  0.20200381    -0.73700
O184        O  0.28105065  0.27514024  0.22080080    -0.72400
Cu185      Cu  0.21564954  0.23077024  0.16412768     1.04600
Cu186      Cu  0.21770616  0.28728533  0.21307252     1.04300
C187        C  0.29918274  0.24459656  0.20164369     0.93900
C188        C  0.13425337  0.27118654  0.17560790     0.93000
C189        C  0.23309885  0.31340727  0.12666522     0.85100
C190        C  0.19300961  0.20622977  0.24931076     0.91400
C191        C  0.03681776  0.08892967  0.41271567     0.80800
N192        N  0.06890795  0.09751519  0.38511166    -0.77500
C193        C  0.07618182  0.13758835  0.37082023     0.83300
N194        N  0.04997467  0.16913738  0.38221540    -0.77400
C195        C  0.01765346  0.16145977  0.40950299     0.83400
N196        N  0.01136861  0.12132317  0.42551261    -0.79100
C197        C  0.31448306  0.82960422  0.56157807     0.80800
N198        N  0.33692455  0.83959881  0.52576699    -0.77500
C199        C  0.31594339  0.84932786  0.48906204     0.83300
N200        N  0.27299236  0.84661808  0.48783261    -0.77400
C201        C  0.25058234  0.83477864  0.52259648     0.83400
N202        N  0.27125103  0.82723107  0.55981580    -0.79100
C203        C  0.54552892  0.18896191  0.24785904     0.80800
N204        N  0.54659439  0.14574112  0.24919615    -0.77500
C205        C  0.51005023  0.12287095  0.24373348     0.83300
N206        N  0.47295772  0.14307639  0.23585151    -0.77400
C207        C  0.47153346  0.18600669  0.23431863     0.83400
N208        N  0.50777918  0.20899306  0.24106441    -0.79100
O209        O  0.01503427  0.60819190  0.03589382    -0.72300
O210        O  0.88968336  0.62735150  0.01579971    -0.73300
O211        O  0.96765736  0.65884960  0.97942194    -0.61900
O212        O  0.93850351  0.57668749  0.07484065    -0.70300
O213        O  0.93853868  0.63180724  0.11818714    -0.69900
O214        O  0.97037901  0.71143974  0.02573084    -0.61100
O215        O  0.89236947  0.68219333  0.05945398    -0.73700
O216        O  0.01619079  0.66051501  0.08255569    -0.72400
Cu217      Cu  0.95231987  0.61568391  0.02492881     1.04600
Cu218      Cu  0.95413239  0.67309428  0.07312821     1.04300
C219        C  0.03552427  0.63230168  0.06138209     0.93900
C220        C  0.87176181  0.65880183  0.03334711     0.93000
C221        C  0.97615824  0.69762071  0.98846892     0.85100
C222        C  0.93444034  0.59204130  0.11197745     0.91400
C223        C  0.93844291  0.49800822  0.34603724     0.80800
N224        N  0.93386578  0.49832574  0.30313237    -0.77500
C225        C  0.93748809  0.53551574  0.28114574     0.83300
N226        N  0.94769958  0.57185877  0.30180691    -0.77400
C227        C  0.95345639  0.57184815  0.34440875     0.83400
N228        N  0.94774905  0.53495554  0.36668268    -0.79100
C229        C  0.21602643  0.65705661  0.08172870     0.80800
N230        N  0.22264389  0.68790221  0.11097144    -0.77500
C231        C  0.26141235  0.70662480  0.11503878     0.83300
N232        N  0.29351741  0.69512889  0.08945669    -0.77400
C233        C  0.28795537  0.66354648  0.06111323     0.83400
N234        N  0.24906954  0.64424326  0.05720894    -0.79100
C235        C  0.11312460  0.82630200  0.81651194     0.80800
N236        N  0.08251621  0.81649738  0.84545053    -0.77500
C237        C  0.07835775  0.77660934  0.86124434     0.83300
N238        N  0.10625984  0.74662283  0.85021962    -0.77400
C239        C  0.13711243  0.75512073  0.82169024     0.83400
N240        N  0.14037366  0.79503599  0.80403375    -0.79100
C241        C  0.83755901  0.08265061  0.67997889     0.80800
N242        N  0.81654886  0.07210078  0.71632124    -0.77500
C243        C  0.83751095  0.07132753  0.75403408     0.83300
N244        N  0.87913473  0.08283474  0.75557346    -0.77400
C245        C  0.90038433  0.09366127  0.71961503     0.83400
N246        N  0.87975675  0.09273138  0.68157021    -0.79100
C247        C  0.62644308  0.71977216  0.99142567     0.80800
N248        N  0.66433964  0.69879910  0.99282592    -0.77500
C249        C  0.70086265  0.72009472  0.00337551     0.83300
N250        N  0.69872936  0.76187202  0.01237280    -0.77400
C251        C  0.66198484  0.78346530  0.00899086     0.83400
N252        N  0.62553025  0.76231195  0.99883124    -0.79100
N253        N  0.21979920  0.49916418  0.81698512    -0.26700
N254        N  0.20802127  0.52342645  0.84864789    -0.34500
C255        C  0.20304952  0.49820628  0.88342583     0.01700
C256        C  0.21124050  0.45630389  0.87221015     0.07700
C257        C  0.22156147  0.45848677  0.82991399    -0.05400
H258        H  0.19243585  0.50909014  0.91394096     0.08400
H259        H  0.22860228  0.43210988  0.80945460     0.09600
Cu260      Cu  0.19553097  0.58888697  0.83801262     0.44200
Cu261      Cu  0.22482522  0.51948754  0.75533775     0.42000
Cu262      Cu  0.17989904  0.61775254  0.72521253     0.43900
N263        N  0.18429635  0.65132977  0.81435466    -0.34100
N264        N  0.18040409  0.66169694  0.77370676    -0.28300
C265        C  0.16870209  0.70269701  0.76998113    -0.04400
C266        C  0.16458484  0.71935165  0.81008575     0.07800
C267        C  0.17467975  0.68571879  0.83729862     0.01600
H268        H  0.15851179  0.71745346  0.74057273     0.09200
H269        H  0.17096016  0.68515536  0.87133326     0.08300
N270        N  0.17368811  0.56358090  0.68880418    -0.35500
N271        N  0.19341101  0.52811343  0.69905776    -0.27700
C272        C  0.17654648  0.49587665  0.67695529    -0.02900
C273        C  0.14424981  0.51152155  0.65180319     0.05700
C274        C  0.14332517  0.55466413  0.65982099     0.03800
H275        H  0.18266902  0.46272536  0.68365727     0.08900
H276        H  0.11895106  0.57658507  0.64971362     0.07700
N277        N  0.92380855  0.41390834  0.42436983    -0.26700
N278        N  0.93630382  0.39075401  0.39214188    -0.34500
C279        C  0.94130073  0.41678148  0.35811310     0.01700
C280        C  0.93251132  0.45810586  0.37030317     0.07700
C281        C  0.92157518  0.45485832  0.41240006    -0.05400
H282        H  0.95339188  0.40697609  0.32777880     0.08400
H283        H  0.91500127  0.48075249  0.43360808     0.09600
Cu284      Cu  0.95282829  0.32639540  0.40030778     0.44200
Cu285      Cu  0.92216952  0.39273506  0.48592451     0.42000
Cu286      Cu  0.97583201  0.29682112  0.51045589     0.43900
N287        N  0.96949201  0.26472858  0.42098553    -0.34100
N288        N  0.97552351  0.25371871  0.46118375    -0.28300
C289        C  0.98890625  0.21322078  0.46337421    -0.04400
C290        C  0.99192827  0.19781267  0.42267101     0.07800
C291        C  0.97973212  0.23150424  0.39662907     0.01600
H292        H  0.00031156  0.19787009  0.49211359     0.09200
H293        H  0.98136138  0.23276517  0.36260209     0.08300
N294        N  0.98209992  0.35115725  0.54664512    -0.35500
N295        N  0.95999485  0.38571656  0.53842371    -0.27700
C296        C  0.97715707  0.41856180  0.55946773    -0.02900
C297        C  0.01177875  0.40411506  0.58205763     0.05700
C298        C  0.01409724  0.36121235  0.57341654     0.03800
H299        H  0.96869404  0.45140459  0.55415087     0.08900
H300        H  0.03989387  0.34025059  0.58182460     0.07700
C301        C  0.10927822  0.48545072  0.63383382    -0.04700
C302        C  0.10471820  0.48190617  0.58958183    -0.01800
C303        C  0.07342020  0.45444623  0.57255314     0.03100
C304        C  0.04595347  0.43126075  0.59984117    -0.04700
C305        C  0.05013664  0.43522737  0.64405525    -0.01800
C306        C  0.08180472  0.46218185  0.66110567     0.03100
C307        C  0.13277153  0.50596297  0.56168670     0.37800
C308        C  0.02156616  0.41174958  0.67191992     0.37800
C309        C  0.08576107  0.46627832  0.70674492     0.36200
C310        C  0.07029808  0.44911207  0.52700934     0.36200
N311        N  0.08890913  0.46943579  0.74315049    -0.38600
N312        N  0.06805036  0.44465712  0.49069309    -0.38600
N313        N  0.99868637  0.39296945  0.69400124    -0.38100
N314        N  0.15515667  0.52528581  0.53955421    -0.38100
C315        C  0.08257656  0.62972659  0.06471832    -0.04700
C316        C  0.10223766  0.62247749  0.10438610    -0.01800
C317        C  0.14666947  0.62780312  0.10899730     0.03100
C318        C  0.17167214  0.64163597  0.07424665    -0.04700
C319        C  0.15234213  0.64619539  0.03387773    -0.01800
C320        C  0.10805597  0.63941092  0.02899456     0.03100
C321        C  0.07663614  0.60974184  0.14055664     0.37800
C322        C  0.17720127  0.66120371  0.99799005     0.37800
C323        C  0.08850236  0.64484531  0.98751339     0.36200
C324        C  0.16668454  0.61941748  0.14974688     0.36200
N325        N  0.07324722  0.64898020  0.95425788    -0.38600
N326        N  0.18266436  0.61253091  0.18220644    -0.38600
N327        N  0.19688340  0.67344096  0.96938048    -0.38100
N328        N  0.05626132  0.59953337  0.16942829    -0.38100
C329        C  0.92634417  0.56478017  0.14962072    -0.04700
C330        C  0.89356020  0.57626863  0.17745185    -0.01800
C331        C  0.89501959  0.56320745  0.22020554     0.03100
C332        C  0.92880491  0.53790266  0.23506761    -0.04700
C333        C  0.95800594  0.52131337  0.20597562    -0.01800
C334        C  0.95699294  0.53500411  0.16315537     0.03100
C335        C  0.85980402  0.60387084  0.16260351     0.37800
C336        C  0.99111018  0.49304750  0.22084622     0.37800
C337        C  0.98994297  0.52183377  0.13433637     0.36200
C338        C  0.86302825  0.57771336  0.24948576     0.36200
N339        N  0.01638855  0.51142621  0.11145416    -0.38600
N340        N  0.83757608  0.58937186  0.27284949    -0.38600
N341        N  0.01740113  0.47038932  0.23282382    -0.38100
N342        N  0.83299397  0.62596668  0.15072668    -0.38100
C343        C  0.82771418  0.67079170  0.02113653    -0.04700
C344        C  0.79225959  0.64449564  0.03078857    -0.01800
C345        C  0.75034385  0.65933150  0.02351170     0.03100
C346        C  0.74379621  0.69980887  0.00458413    -0.04700
C347        C  0.77980838  0.72387579  0.99094335    -0.01800
C348        C  0.82126714  0.71007593  0.00037725     0.03100
C349        C  0.79891338  0.60289372  0.04966061     0.37800
C350        C  0.77456457  0.76317389  0.96696218     0.37800
C351        C  0.85753481  0.73671069  0.98878102     0.36200
C352        C  0.71433051  0.63392769  0.03779978     0.36200
N353        N  0.88627533  0.75819796  0.97974483    -0.38600
N354        N  0.68563743  0.61364864  0.04938563    -0.38600
N355        N  0.77049921  0.79455338  0.94797991    -0.38100
N356        N  0.80425768  0.56956235  0.06445332    -0.38100
C357        C  0.99728906  0.72578792  0.95697147    -0.04700
C358        C  0.98239144  0.72829531  0.91471345    -0.01800
C359        C  0.00722766  0.74919772  0.88361067     0.03100
C360        C  0.04743467  0.76624243  0.89453271    -0.04700
C361        C  0.06115126  0.76616551  0.93703663    -0.01800
C362        C  0.03574032  0.74689439  0.96844094     0.03100
C363        C  0.94191744  0.70895141  0.90316382     0.37800
C364        C  0.10288104  0.78333956  0.94792785     0.37800
C365        C  0.05122961  0.74603697  0.01192410     0.36200
C366        C  0.99238357  0.75166040  0.84004067     0.36200
N367        N  0.06380194  0.74560861  0.04648925    -0.38600
N368        N  0.98050986  0.75388792  0.80529581    -0.38600
N369        N  0.13629766  0.79666803  0.95642763    -0.38100
N370        N  0.90959506  0.69353831  0.89395292    -0.38100
C371        C  0.43033597  0.20680552  0.22438465    -0.04700
C372        C  0.41125655  0.20101225  0.18429594    -0.01800
C373        C  0.36937190  0.21493533  0.17631710     0.03100
C374        C  0.34560493  0.23486139  0.20865419    -0.04700
C375        C  0.36602070  0.24269676  0.24821551    -0.01800
C376        C  0.40802649  0.22852046  0.25596230     0.03100
C377        C  0.43490657  0.18033415  0.15109687     0.37800
C378        C  0.34350952  0.26346583  0.28201215     0.37800
C379        C  0.42756693  0.23416466  0.29734384     0.36200
C380        C  0.35115544  0.20841802  0.13444504     0.36200
N381        N  0.44324795  0.23842318  0.33034168    -0.38600
N382        N  0.33678917  0.20282928  0.10106113    -0.38600
N383        N  0.32583156  0.28015431  0.30911871    -0.38100
N384        N  0.45384724  0.16390823  0.12468975    -0.38100
C385        C  0.11065093  0.14689409  0.34061182    -0.04700
C386        C  0.10375241  0.13978631  0.29719476    -0.01800
C387        C  0.13235814  0.15678480  0.26716400     0.03100
C388        C  0.16904118  0.17987737  0.28067319    -0.04700
C389        C  0.17775098  0.18337311  0.32457562    -0.01800
C390        C  0.14828816  0.16734510  0.35444988     0.03100
C391        C  0.06572543  0.11709927  0.28333945     0.37800
C392        C  0.21649758  0.20422637  0.33910208     0.37800
C393        C  0.15598221  0.17288885  0.39946322     0.36200
C394        C  0.12132208  0.15389877  0.22250650     0.36200
N395        N  0.16199218  0.17724028  0.43539636    -0.38600
N396        N  0.11214581  0.15179622  0.18699358    -0.38600
N397        N  0.24739401  0.22078646  0.35084488    -0.38100
N398        N  0.03546320  0.09891502  0.27236294    -0.38100
C399        C  0.12063175  0.81009741  0.48928386    -0.04700
C400        C  0.15265821  0.78224603  0.47620658    -0.01800
C401        C  0.19494522  0.78856723  0.48980204     0.03100
C402        C  0.20539213  0.82260992  0.51685913    -0.04700
C403        C  0.17281937  0.84770544  0.53355462    -0.01800
C404        C  0.13028811  0.84117003  0.52013172     0.03100
C405        C  0.14211935  0.74712177  0.44856294     0.37800
C406        C  0.18350126  0.88224481  0.56191031     0.37800
C407        C  0.09714837  0.86843147  0.53580617     0.36200
C408        C  0.22811609  0.76095105  0.47468850     0.36200
N409        N  0.07072550  0.89016601  0.54836782    -0.38600
N410        N  0.25468538  0.73912073  0.46261105    -0.38600
N411        N  0.19206308  0.90992256  0.58438602    -0.38100
N412        N  0.13393550  0.71871472  0.42690876    -0.38100
C413        C  0.02068604  0.95399987  0.43696986    -0.04700
C414        C  0.06097927  0.97371293  0.44131351    -0.01800
C415        C  0.06543955  0.01825632  0.43709873     0.03100
C416        C  0.02983056  0.04371218  0.42677667    -0.04700
C417        C  0.98904839  0.02414796  0.42468691    -0.01800
C418        C  0.98448255  0.97955591  0.43038357     0.03100
C419        C  0.09827596  0.94796008  0.44900107     0.37800
C420        C  0.95215258  0.04911524  0.41328304     0.37800
C421        C  0.94276274  0.95968409  0.42659928     0.36200
C422        C  0.10716345  0.03776613  0.44270980     0.36200
N423        N  0.90938884  0.94402718  0.42365038    -0.38600
N424        N  0.14043858  0.05332144  0.44702718    -0.38600
N425        N  0.92267993  0.06888733  0.40392822    -0.38100
N426        N  0.12820165  0.92762232  0.45484427    -0.38100
C427        C  0.96749242  0.61203499  0.36541186    -0.04700
C428        C  0.94113747  0.63232244  0.39479126    -0.01800
C429        C  0.95153035  0.67365986  0.40948925     0.03100
C430        C  0.98933106  0.69494512  0.39583060    -0.04700
C431        C  0.01680808  0.67309298  0.36801473    -0.01800
C432        C  0.00566519  0.63234275  0.35269886     0.03100
C433        C  0.90189831  0.61155862  0.40804363     0.37800
C434        C  0.05659914  0.69235432  0.35414761     0.37800
C435        C  0.03360957  0.61123699  0.32331422     0.36200
C436        C  0.92139310  0.69506044  0.43625540     0.36200
N437        N  0.05577259  0.59446447  0.29978805    -0.38600
N438        N  0.89705211  0.71204757  0.45736416    -0.38600
N439        N  0.08820173  0.70747509  0.34243187    -0.38100
N440        N  0.87063594  0.59487702  0.41855062    -0.38100
C441        C  0.47548062  0.99306066  0.25471354    -0.04700
C442        C  0.49859999  0.00676816  0.21876981    -0.01800
C443        C  0.51421036  0.04893247  0.21636019     0.03100
C444        C  0.50838950  0.07647979  0.25071760    -0.04700
C445        C  0.49134987  0.06050135  0.28903031    -0.01800
C446        C  0.47423901  0.01896348  0.29082533     0.03100
C447        C  0.50317053  0.97865338  0.18300116     0.37800
C448        C  0.48888979  0.08788035  0.32560146     0.37800
C449        C  0.45344688  0.00354898  0.32900078     0.36200
C450        C  0.53277590  0.06504410  0.17733465     0.36200
N451        N  0.43699941  0.99123636  0.35953635    -0.38600
N452        N  0.54735814  0.07794105  0.14608933    -0.38600
N453        N  0.48717276  0.10978224  0.35475048    -0.38100
N454        N  0.50698411  0.95606216  0.15461434    -0.38100
C455        C  0.36443377  0.87849568  0.36409697    -0.04700
C456        C  0.37319396  0.83863766  0.38390140    -0.01800
C457        C  0.36027325  0.83017357  0.42614372     0.03100
C458        C  0.33853464  0.86112528  0.44922675    -0.04700
C459        C  0.33190835  0.90150522  0.43072240    -0.01800
C460        C  0.34473196  0.91028567  0.38862258     0.03100
C461        C  0.39319779  0.80498607  0.36044978     0.37800
C462        C  0.31104947  0.93402312  0.45507990     0.37800
C463        C  0.33701036  0.95223649  0.37086416     0.36200
C464        C  0.36701458  0.78854217  0.44504318     0.36200
N465        N  0.33051739  0.98568886  0.35685328    -0.38600
N466        N  0.37230286  0.75532459  0.46010966    -0.38600
N467        N  0.29445338  0.95988216  0.47458877    -0.38100
N468        N  0.40915895  0.77800144  0.34193471    -0.38100
C469        C  0.30235307  0.80785273  0.19454735    -0.04700
C470        C  0.28578049  0.81702205  0.15363756    -0.01800
C471        C  0.26987284  0.78387694  0.12828163     0.03100
C472        C  0.26850887  0.74201579  0.14442129    -0.04700
C473        C  0.28005932  0.73373665  0.18693616    -0.01800
C474        C  0.29756452  0.76657764  0.21186127     0.03100
C475        C  0.28814106  0.85980435  0.13604351     0.37800
C476        C  0.27606511  0.69101407  0.20420547     0.37800
C477        C  0.31144223  0.75783936  0.25496618     0.36200
C478        C  0.25741753  0.79231638  0.08460570     0.36200
N479        N  0.32240178  0.75093036  0.28941729    -0.38600
N480        N  0.24779196  0.79890839  0.04969885    -0.38600
N481        N  0.27275834  0.65696344  0.21808748    -0.38100
N482        N  0.28971622  0.89381888  0.12178542    -0.38100
C483        C  0.39310632  0.91147774  0.01518629    -0.04700
C484        C  0.40284203  0.94866766  0.03860655    -0.01800
C485        C  0.40659426  0.94690908  0.08323851     0.03100
C486        C  0.40198942  0.90780864  0.10509872    -0.04700
C487        C  0.39591201  0.87009475  0.08155203    -0.01800
C488        C  0.39138344  0.87190770  0.03686650     0.03100
C489        C  0.40849510  0.98921116  0.01682141     0.37800
C490        C  0.39096368  0.82955873  0.10346665     0.37800
C491        C  0.38206967  0.83321291  0.01385655     0.36200
C492        C  0.41472044  0.98562382  0.10669530     0.36200
N493        N  0.37469345  0.80219497  0.99571114    -0.38600
N494        N  0.42111862  0.01660108  0.12524507    -0.38600
N495        N  0.38685606  0.79720441  0.12083352    -0.38100
N496        N  0.41283076  0.02153471  0.99944536    -0.38100
C497        C  0.22610406  0.37867661  0.00850184    -0.04700
C498        C  0.19495602  0.38618599  0.03930807    -0.01800
C499        C  0.19948783  0.36856574  0.08038729     0.03100
C500        C  0.23525847  0.34347227  0.09040482    -0.04700
C501        C  0.26910724  0.34141596  0.06152423    -0.01800
C502        C  0.26459034  0.35916864  0.02056901     0.03100
C503        C  0.15687095  0.40920109  0.02773533     0.37800
C504        C  0.30798436  0.32006364  0.07369545     0.37800
C505        C  0.29859041  0.35550176  0.99003779     0.36200
C506        C  0.16559876  0.37307633  0.11094729     0.36200
N507        N  0.32571914  0.35255404  0.96566755    -0.38600
N508        N  0.13849571  0.37670307  0.13524140    -0.38600
N509        N  0.33920009  0.30345697  0.08358449    -0.38100
N510        N  0.12656977  0.42773816  0.01851158    -0.38100
C511        C  0.23914266  0.04173267  0.88492576    -0.04700
C512        C  0.22772264  0.00525690  0.90951917    -0.01800
C513        C  0.25914761  0.97673196  0.92320596     0.03100
C514        C  0.30190570  0.98426593  0.91253241    -0.04700
C515        C  0.31389935  0.02173423  0.89068940    -0.01800
C516        C  0.28260174  0.05053236  0.87691541     0.03100
C517        C  0.18349768  0.99485640  0.91835984     0.37800
C518        C  0.35845272  0.03016455  0.88184840     0.37800
C519        C  0.29518853  0.08894680  0.85423585     0.36200
C520        C  0.24730025  0.93836542  0.94654228     0.36200
N521        N  0.30525697  0.11959157  0.83614033    -0.38600
N522        N  0.23796706  0.90775179  0.96507595    -0.38600
N523        N  0.39404424  0.03681218  0.87498186    -0.38100
N524        N  0.14834522  0.98631353  0.92555244    -0.38100
C525        C  0.19133073  0.29893789  0.88068436    -0.04700
C526        C  0.16277156  0.29428094  0.84584521    -0.01800
C527        C  0.15218923  0.25330895  0.83012208     0.03100
C528        C  0.16890423  0.21651292  0.84964952    -0.04700
C529        C  0.19818219  0.22096531  0.88334052    -0.01800
C530        C  0.21001697  0.26162256  0.89819288     0.03100
C531        C  0.14262711  0.33122537  0.82708349     0.37800
C532        C  0.21652960  0.18330387  0.90283092     0.37800
C533        C  0.24233567  0.26428480  0.93115907     0.36200
C534        C  0.12324634  0.24892078  0.79443558     0.36200
N535        N  0.26810088  0.26536804  0.95749947    -0.38600
N536        N  0.10031701  0.24553075  0.76579000    -0.38600
N537        N  0.23115483  0.15342307  0.91853633    -0.38100
N538        N  0.12646657  0.36065300  0.81205560    -0.38100
C539        C  0.12372378  0.96272512  0.79766660    -0.04700
C540        C  0.08361139  0.94228680  0.79692087    -0.01800
C541        C  0.08049370  0.89744282  0.79855137     0.03100
C542        C  0.11754321  0.87216603  0.80259660    -0.04700
C543        C  0.15782159  0.89265889  0.79923408    -0.01800
C544        C  0.16083369  0.93766985  0.79685238     0.03100
C545        C  0.04533900  0.96757440  0.79458228     0.37800
C546        C  0.19644842  0.86797969  0.80008508     0.37800
C547        C  0.20240761  0.95823377  0.79634240     0.36200
C548        C  0.03873803  0.87740986  0.79585521     0.36200
N549        N  0.23558547  0.97457967  0.79592236    -0.38600
N550        N  0.00540838  0.86152589  0.79368497    -0.38600
N551        N  0.22745613  0.84853311  0.80039504    -0.38100
N552        N  0.01489676  0.98783229  0.79272271    -0.38100
C553        C  0.94576020  0.10663663  0.72306462    -0.04700
C554        C  0.95756952  0.13955030  0.75101187    -0.01800
C555        C  0.00025004  0.14441242  0.76402889     0.03100
C556        C  0.03132329  0.11635854  0.74919062    -0.04700
C557        C  0.02049327  0.08720435  0.71694198    -0.01800
C558        C  0.97766569  0.08244440  0.70379347     0.03100
C559        C  0.92557963  0.16776254  0.76732217     0.37800
C560        C  0.05253447  0.05929950  0.70018147     0.37800
C561        C  0.96610703  0.05037398  0.67299391     0.36200
C562        C  0.01196071  0.17723905  0.79404216     0.36200
N563        N  0.95694319  0.02484672  0.64832408    -0.38600
N564        N  0.02119928  0.20343105  0.81798595    -0.38600
N565        N  0.07810898  0.03700747  0.68689365    -0.38100
N566        N  0.90032708  0.19054728  0.78035096    -0.38100
C567        C  0.99747030  0.27123870  0.15626357    -0.04700
C568        C  0.01491269  0.27233047  0.19792113    -0.01800
C569        C  0.05955611  0.27399066  0.20428820     0.03100
C570        C  0.08739693  0.27544791  0.16928538    -0.04700
C571        C  0.07011895  0.27728911  0.12788164    -0.01800
C572        C  0.02560561  0.27560317  0.12138024     0.03100
C573        C  0.98745078  0.26974019  0.23466023     0.37800
C574        C  0.09830750  0.28066634  0.09166241     0.37800
C575        C  0.00902636  0.27884428  0.07842219     0.36200
C576        C  0.07680854  0.27086974  0.24700411     0.36200
N577        N  0.99603511  0.28139115  0.04408560    -0.38600
N578        N  0.09043844  0.26806936  0.28107841    -0.38600
N579        N  0.12084482  0.28321733  0.06285618    -0.38100
N580        N  0.96572753  0.26798732  0.26412602    -0.38100
C581        C  0.83571133  0.91099132  0.32619573    -0.04700
C582        C  0.82893859  0.88588767  0.36291083    -0.01800
C583        C  0.86055949  0.85784188  0.37736358     0.03100
C584        C  0.90017738  0.85612002  0.35611064    -0.04700
C585        C  0.90368147  0.87603255  0.31553834    -0.01800
C586        C  0.87135337  0.90310756  0.30059333     0.03100
C587        C  0.78954535  0.88945467  0.38635445     0.37800
C588        C  0.94111488  0.87080924  0.28946459     0.37800
C589        C  0.87634593  0.92452041  0.25989261     0.36200
C590        C  0.85214550  0.83175810  0.41469113     0.36200
N591        N  0.88052820  0.94098219  0.22717643    -0.38600
N592        N  0.84518552  0.81109058  0.44447559    -0.38600
N593        N  0.97089970  0.86703849  0.26852472    -0.38100
N594        N  0.75821081  0.89240613  0.40508714    -0.38100
C595        C  0.84346948  0.13119773  0.02645324    -0.04700
C596        C  0.88709772  0.12716442  0.03830532    -0.01800
C597        C  0.90710496  0.15838736  0.06369688     0.03100
C598        C  0.88448795  0.19468890  0.07560105    -0.04700
C599        C  0.84449468  0.20261961  0.05663740    -0.01800
C600        C  0.82380748  0.17102407  0.03257643     0.03100
C601        C  0.91147787  0.09042617  0.02617684     0.37800
C602        C  0.82388450  0.24312688  0.06296735     0.37800
C603        C  0.78161601  0.17965595  0.01585482     0.36200
C604        C  0.94982585  0.15152571  0.07986797     0.36200
N605        N  0.74784982  0.18682713  0.00303289    -0.38600
N606        N  0.98391064  0.14600261  0.09269666    -0.38600
N607        N  0.80744608  0.27534216  0.06811216    -0.38100
N608        N  0.93117722  0.06125375  0.01664178    -0.38100
C609        C  0.76427128  0.01877444  0.13628703    -0.04700
C610        C  0.72803932  0.00355983  0.15838087    -0.01800
C611        C  0.72990108  0.99742708  0.20280516     0.03100
C612        C  0.76738480  0.00776979  0.22539859    -0.04700
C613        C  0.80247823  0.02574754  0.20376391    -0.01800
C614        C  0.80105986  0.03101575  0.15936986     0.03100
C615        C  0.68973256  0.99175452  0.13526188     0.37800
C616        C  0.84067087  0.03758395  0.22715787     0.37800
C617        C  0.83763241  0.04908947  0.13752038     0.36200
C618        C  0.69412884  0.97833730  0.22504185     0.36200
N619        N  0.86694081  0.06346346  0.12033127    -0.38600
N620        N  0.66572996  0.96288194  0.24284561    -0.38600
N621        N  0.87115062  0.04691370  0.24579474    -0.38100
N622        N  0.65918741  0.98224704  0.11682163    -0.38100
C623        C  0.78434215  0.04030605  0.87632477    -0.04700
C624        C  0.79590534  0.00751533  0.84849379    -0.01800
C625        C  0.81134280  0.01749127  0.80750767     0.03100
C626        C  0.81506091  0.06024221  0.79396609    -0.04700
C627        C  0.80066949  0.09276825  0.82044054    -0.01800
C628        C  0.78539332  0.08295640  0.86143997     0.03100
C629        C  0.79168226  0.96347564  0.86196633     0.37800
C630        C  0.80245245  0.13657980  0.80572656     0.37800
C631        C  0.77324720  0.11726028  0.88903146     0.36200
C632        C  0.82457195  0.98385887  0.77964360     0.36200
N633        N  0.76357208  0.14476549  0.91086542    -0.38600
N634        N  0.83510276  0.95706156  0.75733819    -0.38600
N635        N  0.80360544  0.17151635  0.79395224    -0.38100
N636        N  0.78805318  0.92835104  0.87270768    -0.38100
C637        C  0.69746697  0.91402029  0.00798778    -0.04700
C638        C  0.70509090  0.88858551  0.04437680    -0.01800
C639        C  0.68800300  0.84722793  0.04711067     0.03100
C640        C  0.66444274  0.83030284  0.01289983    -0.04700
C641        C  0.65281157  0.85719023  0.97862603    -0.01800
C642        C  0.66911711  0.89928241  0.97636953     0.03100
C643        C  0.73218013  0.90404759  0.07846731     0.37800
C644        C  0.62695772  0.84069629  0.94418193     0.37800
C645        C  0.65936002  0.92617779  0.94009965     0.36200
C646        C  0.69659004  0.82108483  0.08437350     0.36200
N647        N  0.65154054  0.94767918  0.91116643    -0.38600
N648        N  0.70353570  0.80018228  0.11396239    -0.38600
N649        N  0.60626146  0.82753297  0.91671626    -0.38100
N650        N  0.75400800  0.91549606  0.10582851    -0.38100
C651        C  0.58924823  0.96688279  0.60475842    -0.04700
C652        C  0.61550075  0.93069455  0.60587274    -0.01800
C653        C  0.60498459  0.89578403  0.63227869     0.03100
C654        C  0.56836180  0.89686876  0.65768490    -0.04700
C655        C  0.54263427  0.93347446  0.65728080    -0.01800
C656        C  0.55318845  0.96839104  0.63093936     0.03100
C657        C  0.65389782  0.92966749  0.58065892     0.37800
C658        C  0.50456817  0.93489953  0.68298657     0.37800
C659        C  0.52637102  0.00559641  0.62997696     0.36200
C660        C  0.63213619  0.85885647  0.63384604     0.36200
N661        N  0.50496340  0.03524040  0.62909122    -0.38600
N662        N  0.65388298  0.82947809  0.63535396    -0.38600
N663        N  0.47427668  0.93615449  0.70356433    -0.38100
N664        N  0.68452623  0.92881154  0.56055148    -0.38100
C665        C  0.60610033  0.44014549  0.13264616    -0.04700
C666        C  0.58512764  0.40992815  0.10674538    -0.01800
C667        C  0.55749948  0.42349044  0.07410036     0.03100
C668        C  0.55004570  0.46710971  0.06792700    -0.04700
C669        C  0.57050553  0.49728796  0.09430330    -0.01800
C670        C  0.59903627  0.48378929  0.12614150     0.03100
C671        C  0.59209733  0.36488376  0.11356812     0.37800
C672        C  0.56165011  0.54221032  0.08919272     0.37800
C673        C  0.62087065  0.51471664  0.15252617     0.36200
C674        C  0.53707685  0.39270908  0.04651008     0.36200
N675        N  0.63845764  0.53931059  0.17351705    -0.38600
N676        N  0.52083491  0.36826878  0.02433484    -0.38600
N677        N  0.55442486  0.57800766  0.08527642    -0.38100
N678        N  0.59751028  0.32894433  0.11910395    -0.38100
loop_ 
_geom_bond_atom_site_label_1 
_geom_bond_atom_site_label_2 
_geom_bond_distance 
_geom_bond_site_symmetry_2 
_ccdc_geom_bond_type 
N1            N2   1.321       .  A
N1            C5   1.345       .  A
N1           Cu9   2.056       .  S
N2            C3   1.349       .  A
N2           Cu8   2.096       .  S
C3            C4   1.389       .  A
C3            H6   1.082   1_556  S
C4            C5   1.380       .  A
C4          C247   1.474       .  S
C5            H7   1.082       .  S
Cu8          N11   2.096   1_556  S
Cu9          N19   2.049       .  S
Cu10         N12   2.072       .  S
Cu10         N18   2.073       .  S
N11          N12   1.324       .  A
N11          C15   1.344       .  A
N12          C13   1.349       .  A
C13          C14   1.382       .  A
C13          H16   1.082       .  S
C14          C15   1.386       .  A
C14         C233   1.472       .  S
C15          H17   1.082       .  S
N18          N19   1.321   1_554  A
N18          C22   1.346       .  A
N19          C20   1.340       .  A
C20          C21   1.377   1_556  A
C20          H23   1.082       .  S
C21          C22   1.384       .  A
C21         C668   1.477       .  S
C22          H24   1.082       .  S
N25          N26   1.321       .  A
N25          C29   1.341       .  A
N25         Cu33   2.050       .  S
N26          C27   1.352       .  A
N26         Cu32   2.103       .  S
C27          C28   1.392       .  A
C27          H30   1.082       .  S
C28          C29   1.377       .  A
C28         C203   1.474       .  S
C29          H31   1.083       .  S
Cu32         N35   2.105       .  S
Cu33         N43   2.047       .  S
Cu34         N36   2.073       .  S
Cu34         N42   2.072       .  S
N35          N36   1.324       .  A
N35          C39   1.345       .  A
N36          C37   1.348       .  A
C37          C38   1.383       .  A
C37          H40   1.082       .  S
C38          C39   1.389       .  A
C38         C121   1.469       .  S
C39          H41   1.081       .  S
N42          N43   1.321       .  A
N42          C46   1.346       .  A
N43          C44   1.340       .  A
C44          C45   1.377       .  A
C44          H47   1.082       .  S
C45          C46   1.384       .  A
C45         C665   1.476       .  S
C46          H48   1.082       .  S
N49          N50   1.322       .  A
N49          C53   1.340       .  A
N49         Cu57   2.051       .  S
N50          C51   1.352       .  A
N50         Cu56   2.099       .  S
C51          C52   1.390       .  A
C51          H54   1.082       .  S
C52          C53   1.376       .  A
C52         C241   1.471       .  S
C53          H55   1.082       .  S
Cu56         N59   2.101       .  S
Cu57         N67   2.046       .  S
Cu58         N60   2.069       .  S
Cu58         N66   2.068       .  S
N59          N60   1.324       .  A
N59          C63   1.346       .  A
N60          C61   1.346       .  A
C61          C62   1.380       .  A
C61          H64   1.082       .  S
C62          C63   1.387       .  A
C62         C115   1.467       .  S
C63          H65   1.082       .  S
N66          N67   1.320       .  A
N66          C70   1.345       .  A
N67          C68   1.340       .  A
C68          C69   1.377       .  A
C68          H71   1.082       .  S
C69          C70   1.385       .  A
C69         C651   1.479   1_545  S
C70          H72   1.082   1_545  S
N73          N74   1.322       .  A
N73          C77   1.344       .  A
N73         Cu81   2.058       .  S
N74          C75   1.351       .  A
N74         Cu80   2.110       .  S
C75          C76   1.391       .  A
C75          H78   1.082       .  S
C76          C77   1.379       .  A
C76         C197   1.476       .  S
C77          H79   1.082       .  S
Cu80         N83   2.111       .  S
Cu81         N91   2.051       .  S
Cu82         N84   2.068       .  S
Cu82         N90   2.068       .  S
N83          N84   1.324       .  A
N83          C87   1.346       .  A
N84          C85   1.349       .  A
C85          C86   1.382       .  A
C85          H88   1.082       .  S
C86          C87   1.390       .  A
C86         C147   1.477       .  S
C87          H89   1.083       .  S
N90          N91   1.321       .  A
N90          C94   1.345       .  A
N91          C92   1.340       .  A
C92          C93   1.378       .  A
C92          H95   1.082       .  S
C93          C94   1.385       .  A
C93         C654   1.479       .  S
C94          H96   1.082       .  S
O97        Cu105   2.022   1_566  S
O97         C107   1.278   1_556  A
O98        Cu105   2.011       .  S
O98         C108   1.279       .  A
O99        Cu105   2.021   1_556  S
O99         C109   1.279       .  A
O100       Cu105   2.016       .  S
O100        C110   1.278       .  A
O101       Cu106   2.007       .  S
O101        C110   1.278       .  A
O102       Cu106   2.013   1_556  S
O102        C109   1.278       .  A
O103       Cu106   1.993       .  S
O103        C108   1.275       .  A
O104       Cu106   1.996   1_565  S
O104        C107   1.277       .  A
Cu105      Cu106   2.367       .  S
C107        C637   1.481       .  S
C108        C595   1.505       .  S
C109        C623   1.493       .  S
C110        C609   1.486       .  S
C111        N112   1.357       .  A
C111        N116   1.363   1_565  A
C111        C612   1.478   1_565  S
N112        C113   1.354       .  A
C113        N114   1.355       .  A
C113        C581   1.484       .  S
N114        C115   1.354   1_565  A
C115        N116   1.362       .  A
C117        N118   1.365       .  A
C117        N122   1.369       .  A
C117        C567   1.507       .  S
N118        C119   1.358       .  A
C119        N120   1.350       .  A
C119        C598   1.487       .  S
N120        C121   1.349       .  A
C121        N122   1.363       .  A
O123       Cu131   1.983       .  S
O123        C133   1.274       .  A
O124       Cu131   1.988       .  S
O124        C134   1.276       .  A
O125       Cu131   2.025       .  S
O125        C135   1.280       .  A
O126       Cu131   2.018       .  S
O126        C136   1.278       .  A
O127       Cu132   2.036       .  S
O127        C136   1.280       .  A
O128       Cu132   2.024       .  S
O128        C135   1.279       .  A
O129       Cu132   2.020       .  S
O129        C134   1.279       .  A
O130       Cu132   2.009       .  S
O130        C133   1.279       .  A
Cu131      Cu132   2.372       .  S
C133        C511   1.485       .  S
C134        C556   1.481       .  S
C135        C539   1.496   1_545  S
C136        C528   1.492       .  S
C137        N138   1.370       .  A
C137        N142   1.362       .  A
C137        C256   1.481       .  S
N138        C139   1.364       .  A
C139        N140   1.354       .  A
C139        C525   1.512       .  S
N140        C141   1.354       .  A
C141        N142   1.359       .  A
C141        C497   1.477   1_556  S
C143        N144   1.357       .  A
C143        N148   1.371       .  A
C143        C483   1.499   1_556  S
N144        C145   1.350       .  A
C145        N146   1.350       .  A
C145        C514   1.468       .  S
N146        C147   1.354       .  A
C147        N148   1.369       .  A
O149       Cu157   1.994       .  S
O149        C159   1.276       .  A
O150       Cu157   1.992       .  S
O150        C160   1.275       .  A
O151       Cu157   2.019       .  S
O151        C161   1.280       .  A
O152       Cu157   2.021       .  S
O152        C162   1.280       .  A
O153       Cu158   2.017       .  S
O153        C162   1.278       .  A
O154       Cu158   2.023       .  S
O154        C161   1.279       .  A
O155       Cu158   2.009       .  S
O155        C160   1.279       .  A
O156       Cu158   2.017       .  S
O156        C159   1.277       .  A
Cu157      Cu158   2.369       .  S
C159        C441   1.476       .  S
C160        C469   1.478       .  S
C161        C455   1.510       .  S
C162        C486   1.493       .  S
O163       Cu171   2.010       .  S
O163        C173   1.277       .  A
O164       Cu171   2.006       .  S
O164        C174   1.277   1_455  A
O165       Cu171   1.992   1_655  S
O165        C175   1.275       .  A
O166       Cu171   2.001       .  S
O166        C176   1.278       .  A
O167       Cu172   2.014   1_455  S
O167        C176   1.277       .  A
O168       Cu172   1.997       .  S
O168        C175   1.277       .  A
O169       Cu172   2.046       .  S
O169        C174   1.283       .  A
O170       Cu172   2.038       .  S
O170        C173   1.281   1_655  A
Cu171      Cu172   2.364   1_455  S
C173        C413   1.491       .  S
C174        C430   1.514       .  S
C175        C584   1.500       .  S
C176        C399   1.483       .  S
O177       Cu185   2.001       .  S
O177        C187   1.276       .  A
O178       Cu185   2.004       .  S
O178        C188   1.277       .  A
O179       Cu185   2.004       .  S
O179        C189   1.278       .  A
O180       Cu185   1.999       .  S
O180        C190   1.277       .  A
O181       Cu186   2.003       .  S
O181        C190   1.277       .  A
O182       Cu186   2.010       .  S
O182        C189   1.276       .  A
O183       Cu186   2.031       .  S
O183        C188   1.281       .  A
O184       Cu186   2.045       .  S
O184        C187   1.283       .  A
Cu185      Cu186   2.368       .  S
C187        C374   1.509       .  S
C188        C570   1.493       .  S
C189        C500   1.478       .  S
C190        C388   1.487       .  S
C191        N192   1.360       .  A
C191        N196   1.370       .  A
C191        C416   1.500       .  S
N192        C193   1.352       .  A
C193        N194   1.351       .  A
C193        C385   1.472       .  S
N194        C195   1.354       .  A
C195        N196   1.368       .  A
C195        C290   1.474   1_455  S
C197        N198   1.368       .  A
C197        N202   1.361       .  A
N198        C199   1.363       .  A
C199        N200   1.352       .  A
C199        C458   1.489       .  S
N200        C201   1.354       .  A
C201        N202   1.358       .  A
C201        C402   1.477       .  S
C203        N204   1.362       .  A
C203        N208   1.365       .  A
N204        C205   1.359       .  A
C205        N206   1.356       .  A
C205        C444   1.475       .  S
N206        C207   1.353       .  A
C207        N208   1.359       .  A
C207        C371   1.489       .  S
O209       Cu217   2.016   1_455  S
O209        C219   1.277       .  A
O210       Cu217   2.026       .  S
O210        C220   1.278       .  A
O211       Cu217   2.022   1_556  S
O211        C221   1.281       .  A
O212       Cu217   2.032       .  S
O212        C222   1.280       .  A
O213       Cu218   1.976       .  S
O213        C222   1.274       .  A
O214       Cu218   1.977       .  S
O214        C221   1.273   1_554  A
O215       Cu218   2.010       .  S
O215        C220   1.279       .  A
O216       Cu218   2.015   1_455  S
O216        C219   1.279       .  A
Cu217      Cu218   2.374       .  S
C219        C315   1.486       .  S
C220        C343   1.487       .  S
C221        C357   1.480       .  S
C222        C329   1.479       .  S
C223        N224   1.360       .  A
C223        N228   1.367       .  A
C223        C280   1.474       .  S
N224        C225   1.358       .  A
C225        N226   1.357       .  A
C225        C332   1.479       .  S
N226        C227   1.355       .  A
C227        N228   1.361       .  A
C227        C427   1.495       .  S
C229        N230   1.360       .  A
C229        N234   1.367       .  A
C229        C318   1.489       .  S
N230        C231   1.353       .  A
C231        N232   1.352       .  A
C231        C472   1.471       .  S
N232        C233   1.353       .  A
C233        N234   1.364       .  A
C235        N236   1.361       .  A
C235        N240   1.375       .  A
C235        C542   1.509       .  S
N236        C237   1.351       .  A
C237        N238   1.347       .  A
C237        C360   1.467       .  S
N238        C239   1.350       .  A
C239        N240   1.372       .  A
C239        C266   1.478       .  S
C241        N242   1.363       .  A
C241        N246   1.361       .  A
N242        C243   1.356       .  A
C243        N244   1.354       .  A
C243        C626   1.484       .  S
N244        C245   1.358       .  A
C245        N246   1.361       .  A
C245        C553   1.483       .  S
C247        N248   1.370       .  A
C247        N252   1.363       .  A
N248        C249   1.364   1_556  A
C249        N250   1.351       .  A
C249        C346   1.500       .  S
N250        C251   1.351       .  A
C251        N252   1.357   1_554  A
C251        C640   1.482       .  S
N253        N254   1.322       .  A
N253        C257   1.341       .  A
N253       Cu261   2.047       .  S
N254        C255   1.356       .  A
N254       Cu260   2.125       .  S
C255        C256   1.397       .  A
C255        H258   1.082       .  S
C256        C257   1.376       .  A
C257        H259   1.083       .  S
Cu260       N263   2.128       .  S
Cu261       N271   2.043       .  S
Cu262       N264   2.074       .  S
Cu262       N270   2.073       .  S
N263        N264   1.325       .  A
N263        C267   1.347       .  A
N264        C265   1.350       .  A
C265        C266   1.382       .  A
C265        H268   1.081       .  S
C266        C267   1.394       .  A
C267        H269   1.081       .  S
N270        N271   1.320       .  A
N270        C274   1.347       .  A
N271        C272   1.340       .  A
C272        C273   1.377       .  A
C272        H275   1.082       .  S
C273        C274   1.385       .  A
C273        C301   1.478       .  S
C274        H276   1.082       .  S
N277        N278   1.322       .  A
N277        C281   1.342       .  A
N277       Cu285   2.047       .  S
N278        C279   1.352       .  A
N278       Cu284   2.110       .  S
C279        C280   1.392       .  A
C279        H282   1.082       .  S
C280        C281   1.376       .  A
C281        H283   1.083       .  S
Cu284       N287   2.112       .  S
Cu285       N295   2.044       .  S
Cu286       N288   2.074       .  S
Cu286       N294   2.073       .  S
N287        N288   1.324       .  A
N287        C291   1.348       .  A
N288        C289   1.348       .  A
C289        C290   1.382       .  A
C289        H292   1.084   1_655  S
C290        C291   1.391       .  A
C291        H293   1.075       .  S
N294        N295   1.321       .  A
N294        C298   1.346   1_655  A
N295        C296   1.341       .  A
C296        C297   1.376   1_655  A
C296        H299   1.082       .  S
C297        C298   1.384       .  A
C297        C304   1.476       .  S
C298        H300   1.082       .  S
C301        C302   1.408       .  A
C301        C306   1.415       .  A
C302        C303   1.409       .  A
C302        C307   1.451       .  S
C303        C304   1.414       .  A
C303        C310   1.451       .  S
C304        C305   1.407       .  A
C305        C306   1.408       .  A
C305        C308   1.451       .  S
C306        C309   1.451       .  S
C307        N314   1.157       .  T
C308        N313   1.157   1_455  T
C309        N311   1.157       .  T
C310        N312   1.157       .  T
C315        C316   1.410       .  A
C315        C320   1.415       .  A
C316        C317   1.412       .  A
C316        C321   1.451       .  S
C317        C318   1.415       .  A
C317        C324   1.451       .  S
C318        C319   1.414       .  A
C319        C320   1.414       .  A
C319        C322   1.451   1_554  S
C320        C323   1.451   1_554  S
C321        N328   1.157       .  T
C322        N327   1.157       .  T
C323        N325   1.157       .  T
C324        N326   1.157       .  T
C329        C330   1.411       .  A
C329        C334   1.413       .  A
C330        C331   1.406       .  A
C330        C335   1.452       .  S
C331        C332   1.410       .  A
C331        C338   1.451       .  S
C332        C333   1.411       .  A
C333        C334   1.414       .  A
C333        C336   1.450       .  S
C334        C337   1.450       .  S
C335        N342   1.157       .  T
C336        N341   1.157   1_655  T
C337        N339   1.157   1_655  T
C338        N340   1.157       .  T
C343        C344   1.413       .  A
C343        C348   1.409       .  A
C344        C345   1.420       .  A
C344        C349   1.450       .  S
C345        C346   1.418       .  A
C345        C352   1.449       .  S
C346        C347   1.421   1_554  A
C347        C348   1.408   1_556  A
C347        C350   1.454       .  S
C348        C351   1.453   1_554  S
C349        N356   1.157       .  T
C350        N355   1.158       .  T
C351        N353   1.157       .  T
C352        N354   1.158       .  T
C357        C358   1.412       .  A
C357        C362   1.419   1_655  A
C358        C359   1.410   1_655  A
C358        C363   1.450       .  S
C359        C360   1.409       .  A
C359        C366   1.450   1_455  S
C360        C361   1.406       .  A
C361        C362   1.405       .  A
C361        C364   1.453       .  S
C362        C365   1.453   1_556  S
C363        N370   1.157       .  T
C364        N369   1.157       .  T
C365        N367   1.157       .  T
C366        N368   1.157       .  T
C371        C372   1.409       .  A
C371        C376   1.410       .  A
C372        C373   1.413       .  A
C372        C377   1.453       .  S
C373        C374   1.424       .  A
C373        C380   1.452       .  S
C374        C375   1.422       .  A
C375        C376   1.418       .  A
C375        C378   1.450       .  S
C376        C379   1.451       .  S
C377        N384   1.157       .  T
C378        N383   1.157       .  T
C379        N381   1.157       .  T
C380        N382   1.158       .  T
C385        C386   1.405       .  A
C385        C390   1.409       .  A
C386        C387   1.407       .  A
C386        C391   1.452       .  S
C387        C388   1.421       .  A
C387        C394   1.452       .  S
C388        C389   1.415       .  A
C389        C390   1.411       .  A
C389        C392   1.451       .  S
C390        C393   1.451       .  S
C391        N398   1.157       .  T
C392        N397   1.157       .  T
C393        N395   1.157       .  T
C394        N396   1.157       .  T
C399        C400   1.410       .  A
C399        C404   1.416       .  A
C400        C401   1.407       .  A
C400        C405   1.449       .  S
C401        C402   1.412       .  A
C401        C408   1.452       .  S
C402        C403   1.409       .  A
C403        C404   1.413       .  A
C403        C406   1.450       .  S
C404        C407   1.451       .  S
C405        N412   1.157       .  T
C406        N411   1.157       .  T
C407        N409   1.157       .  T
C408        N410   1.157       .  T
C413        C414   1.410       .  A
C413        C418   1.415   1_455  A
C414        C415   1.412   1_565  A
C414        C419   1.451       .  S
C415        C416   1.419       .  A
C415        C422   1.452       .  S
C416        C417   1.417   1_455  A
C417        C418   1.419   1_545  A
C417        C420   1.450       .  S
C418        C421   1.451       .  S
C419        N426   1.157       .  T
C420        N425   1.158       .  T
C421        N423   1.157       .  T
C422        N424   1.157       .  T
C427        C428   1.411       .  A
C427        C432   1.411   1_655  A
C428        C429   1.420       .  A
C428        C433   1.451       .  S
C429        C430   1.424       .  A
C429        C436   1.450       .  S
C430        C431   1.424   1_655  A
C431        C432   1.415       .  A
C431        C434   1.451       .  S
C432        C435   1.453       .  S
C433        N440   1.157       .  T
C434        N439   1.157       .  T
C435        N437   1.157       .  T
C436        N438   1.157       .  T
C441        C442   1.412   1_565  A
C441        C446   1.409   1_565  A
C442        C443   1.411       .  A
C442        C447   1.451   1_545  S
C443        C444   1.410       .  A
C443        C450   1.450       .  S
C444        C445   1.410       .  A
C445        C446   1.408       .  A
C445        C448   1.451       .  S
C446        C449   1.450       .  S
C447        N454   1.157       .  T
C448        N453   1.157       .  T
C449        N451   1.157   1_545  T
C450        N452   1.157       .  T
C455        C456   1.425       .  A
C455        C460   1.422       .  A
C456        C457   1.417       .  A
C456        C461   1.451       .  S
C457        C458   1.409       .  A
C457        C464   1.451       .  S
C458        C459   1.410       .  A
C459        C460   1.414       .  A
C459        C462   1.452       .  S
C460        C463   1.451       .  S
C461        N468   1.158       .  T
C462        N467   1.157       .  T
C463        N465   1.158       .  T
C464        N466   1.157       .  T
C469        C470   1.417       .  A
C469        C474   1.411       .  A
C470        C471   1.407       .  A
C470        C475   1.452       .  S
C471        C472   1.408       .  A
C471        C478   1.453       .  S
C472        C473   1.410       .  A
C473        C474   1.410       .  A
C473        C476   1.450       .  S
C474        C477   1.450       .  S
C475        N482   1.157       .  T
C476        N481   1.157       .  T
C477        N479   1.157       .  T
C478        N480   1.157       .  T
C483        C484   1.420       .  A
C483        C488   1.415       .  A
C484        C485   1.413       .  A
C484        C489   1.452       .  S
C485        C486   1.411       .  A
C485        C492   1.452       .  S
C486        C487   1.418       .  A
C487        C488   1.417       .  A
C487        C490   1.452       .  S
C488        C491   1.451       .  S
C489        N496   1.157   1_564  T
C490        N495   1.157       .  T
C491        N493   1.157   1_554  T
C492        N494   1.157   1_565  T
C497        C498   1.408       .  A
C497        C502   1.412       .  A
C498        C499   1.411       .  A
C498        C503   1.450       .  S
C499        C500   1.414       .  A
C499        C506   1.451       .  S
C500        C501   1.408       .  A
C501        C502   1.409       .  A
C501        C504   1.450       .  S
C502        C505   1.450   1_554  S
C503        N510   1.157       .  T
C504        N509   1.157       .  T
C505        N507   1.157       .  T
C506        N508   1.157       .  T
C511        C512   1.422       .  A
C511        C516   1.415       .  A
C512        C513   1.406   1_545  A
C512        C517   1.453   1_545  S
C513        C514   1.405       .  A
C513        C520   1.453       .  S
C514        C515   1.408   1_565  A
C515        C516   1.410       .  A
C515        C518   1.451       .  S
C516        C519   1.450       .  S
C517        N524   1.158       .  T
C518        N523   1.157       .  T
C519        N521   1.157       .  T
C520        N522   1.157       .  T
C525        C526   1.422       .  A
C525        C530   1.424       .  A
C526        C527   1.422       .  A
C526        C531   1.450       .  S
C527        C528   1.412       .  A
C527        C534   1.450       .  S
C528        C529   1.408       .  A
C529        C530   1.412       .  A
C529        C532   1.454       .  S
C530        C533   1.452       .  S
C531        N538   1.158       .  T
C532        N537   1.157       .  T
C533        N535   1.157       .  T
C534        N536   1.157       .  T
C539        C540   1.409       .  A
C539        C544   1.417       .  A
C540        C541   1.414       .  A
C540        C545   1.452       .  S
C541        C542   1.423       .  A
C541        C548   1.452       .  S
C542        C543   1.418       .  A
C543        C544   1.420       .  A
C543        C546   1.450       .  S
C544        C547   1.451       .  S
C545        N552   1.157       .  T
C546        N551   1.157       .  T
C547        N549   1.157       .  T
C548        N550   1.157       .  T
C553        C554   1.412       .  A
C553        C558   1.412       .  A
C554        C555   1.408   1_655  A
C554        C559   1.451       .  S
C555        C556   1.411       .  A
C555        C562   1.452       .  S
C556        C557   1.415       .  A
C557        C558   1.413   1_455  A
C557        C560   1.451       .  S
C558        C561   1.450       .  S
C559        N566   1.157       .  T
C560        N565   1.157       .  T
C561        N563   1.157       .  T
C562        N564   1.157       .  T
C567        C568   1.421   1_655  A
C567        C572   1.421   1_655  A
C568        C569   1.417       .  A
C568        C573   1.451   1_455  S
C569        C570   1.414       .  A
C569        C576   1.452       .  S
C570        C571   1.412       .  A
C571        C572   1.414       .  A
C571        C574   1.453       .  S
C572        C575   1.452       .  S
C573        N580   1.158       .  T
C574        N579   1.158       .  T
C575        N577   1.157   1_455  T
C576        N578   1.157       .  T
C581        C582   1.411       .  A
C581        C586   1.412       .  A
C582        C583   1.408       .  A
C582        C587   1.453       .  S
C583        C584   1.420       .  A
C583        C590   1.452       .  S
C584        C585   1.423       .  A
C585        C586   1.410       .  A
C585        C588   1.452       .  S
C586        C589   1.452       .  S
C587        N594   1.157       .  T
C588        N593   1.158       .  T
C589        N591   1.157       .  T
C590        N592   1.158       .  T
C595        C596   1.426       .  A
C595        C600   1.420       .  A
C596        C597   1.414       .  A
C596        C601   1.452       .  S
C597        C598   1.409       .  A
C597        C604   1.451       .  S
C598        C599   1.413       .  A
C599        C600   1.408       .  A
C599        C602   1.454       .  S
C600        C603   1.452       .  S
C601        N608   1.158       .  T
C602        N607   1.157       .  T
C603        N605   1.158       .  T
C604        N606   1.157       .  T
C609        C610   1.415       .  A
C609        C614   1.414       .  A
C610        C611   1.414   1_545  A
C610        C615   1.450   1_545  S
C611        C612   1.410   1_565  A
C611        C618   1.450       .  S
C612        C613   1.410       .  A
C613        C614   1.409       .  A
C613        C616   1.452       .  S
C614        C617   1.451       .  S
C615        N622   1.157       .  T
C616        N621   1.157       .  T
C617        N619   1.157       .  T
C618        N620   1.157       .  T
C623        C624   1.415       .  A
C623        C628   1.418       .  A
C624        C625   1.415       .  A
C624        C629   1.450   1_545  S
C625        C626   1.411       .  A
C625        C632   1.450   1_545  S
C626        C627   1.409       .  A
C627        C628   1.412       .  A
C627        C630   1.451       .  S
C628        C631   1.451       .  S
C629        N636   1.157       .  T
C630        N635   1.157       .  T
C631        N633   1.157       .  T
C632        N634   1.157       .  T
C637        C638   1.413       .  A
C637        C642   1.412   1_554  A
C638        C639   1.404       .  A
C638        C643   1.452       .  S
C639        C640   1.411       .  A
C639        C646   1.453       .  S
C640        C641   1.415   1_554  A
C641        C642   1.416       .  A
C641        C644   1.450       .  S
C642        C645   1.449       .  S
C643        N650   1.157       .  T
C644        N649   1.157       .  T
C645        N647   1.157       .  T
C646        N648   1.157       .  T
C651        C652   1.415       .  A
C651        C656   1.409       .  A
C652        C653   1.409       .  A
C652        C657   1.451       .  S
C653        C654   1.408       .  A
C653        C660   1.451       .  S
C654        C655   1.416       .  A
C655        C656   1.408       .  A
C655        C658   1.452       .  S
C656        C659   1.452   1_565  S
C657        N664   1.157       .  T
C658        N663   1.157       .  T
C659        N661   1.157       .  T
C660        N662   1.157       .  T
C665        C666   1.415       .  A
C665        C670   1.407       .  A
C666        C667   1.409       .  A
C666        C671   1.451       .  S
C667        C668   1.407       .  A
C667        C674   1.451       .  S
C668        C669   1.415       .  A
C669        C670   1.408       .  A
C669        C672   1.452       .  S
C670        C673   1.451       .  S
C671        N678   1.157       .  T
C672        N677   1.157       .  T
C673        N675   1.157       .  T
C674        N676   1.157       .  T
