geometry optimzed in LAMMPS
_audit_creation_date              2020-11-30 
_audit_creation_method            'lammps2cif' 
_symmetry_space_group_name_H-M    'P1' 
_symmetry_Int_Tables_number       1 
_symmetry_cell_setting            triclinic 
loop_ 
_symmetry_equiv_pos_as_xyz 
  x,y,z 
_cell_length_a                    53.62752704 
_cell_length_b                    53.64051144766867 
_cell_length_c                    53.61519862935754 
_cell_angle_alpha                 90.02127301065322 
_cell_angle_beta                  90.0852622260492 
_cell_angle_gamma                 89.99903116153274 
loop_ 
_atom_site_label 
_atom_site_type_symbol 
_atom_site_fract_x 
_atom_site_fract_y 
_atom_site_fract_z 
_atom_site_charge 
C1          C  0.98105595  0.01531350  0.00579131     0.03700
C2          C  0.99654445  0.02267751  0.98562143     0.03700
C3          C  0.01702443  0.00750419  0.97851787     0.03700
C4          C  0.02392891  0.98657705  0.99321249     0.03700
C5          C  0.00847046  0.97915369  0.01346866     0.03700
C6          C  0.98779121  0.99428225  0.02052172     0.03700
O7          O  0.02133021  0.19871607  0.86467847    -0.78700
O8          O  0.97381230  0.30182805  0.86190262    -0.78700
O9          O  0.95694943  0.24839764  0.83986451    -0.78700
O10         O  0.03694818  0.25067545  0.83490899    -0.78700
O11         O  0.94064316  0.26730084  0.87168127    -0.78800
O12         O  0.05517725  0.23356153  0.86678920    -0.78700
O13         O  0.99632801  0.28399407  0.83236934    -0.78700
O14         O  0.99617010  0.21434958  0.83605353    -0.78700
C15         C  0.01196622  0.19817773  0.84282724     1.11000
C16         C  0.98053716  0.30013790  0.83915580     1.10900
C17         C  0.93853482  0.25932406  0.84951239     1.11000
C18         C  0.05592047  0.23995857  0.84408247     1.10900
O19         O  0.03546361  0.25310576  0.91279100    -0.78700
O20         O  0.96706826  0.25328975  0.91718982    -0.78800
O21         O  0.98154910  0.19423779  0.88398957    -0.78700
O22         O  0.01562283  0.30897487  0.87647907    -0.78700
O23         O  0.99941287  0.29235597  0.90960387    -0.78700
O24         O  0.00199784  0.21306821  0.91359152    -0.78700
O25         O  0.05056761  0.27522286  0.88171334    -0.78700
O26         O  0.94770259  0.22821773  0.89092498    -0.78700
Co27       Co  0.02579397  0.22692125  0.88919904     1.51500
Co28       Co  0.97281756  0.27647508  0.88973325     1.51700
Co29       Co  0.97277593  0.22397453  0.86261551     1.51600
Co30       Co  0.02249776  0.27703751  0.85691975     1.51500
O31         O  0.99855631  0.25107622  0.87449192    -1.40600
C32         C  0.05176678  0.26784380  0.90425984     1.10900
C33         C  0.95045063  0.23729659  0.91281816     1.11000
C34         C  0.99053532  0.19401207  0.90582514     1.10900
C35         C  0.00955596  0.31084579  0.89928403     1.10900
O36         O  0.86433545  0.02678426  0.20005226    -0.78700
O37         O  0.86350273  0.97525490  0.29962412    -0.78700
O38         O  0.83874064  0.96055915  0.24770039    -0.78700
O39         O  0.84112300  0.04170582  0.25152648    -0.78700
O40         O  0.87093255  0.94261044  0.26416953    -0.78800
O41         O  0.87383370  0.05892652  0.23537104    -0.78700
O42         O  0.83547864  0.00114445  0.28374936    -0.78700
O43         O  0.83525514  0.00228051  0.21624129    -0.78700
C44         C  0.84174814  0.01921292  0.20110881     1.11000
C45         C  0.84125556  0.98369018  0.29864486     1.10900
C46         C  0.84826120  0.94143688  0.25764021     1.11000
C47         C  0.85118701  0.06052198  0.24174960     1.10900
O48         O  0.91857515  0.03279558  0.25018667    -0.78700
O49         O  0.91654872  0.96641277  0.24902789    -0.78800
O50         O  0.87979148  0.98611866  0.19139524    -0.78700
O51         O  0.88054497  0.01549061  0.30799353    -0.78700
O52         O  0.91273685  0.99751152  0.29137892    -0.78700
O53         O  0.91279536  0.00150267  0.20897778    -0.78700
O54         O  0.89089593  0.05030066  0.27533029    -0.78700
O55         O  0.88776451  0.95055727  0.22394705    -0.78700
Co56       Co  0.89207297  0.02725959  0.22575895     1.51500
Co57       Co  0.89073638  0.97322049  0.27386336     1.51700
Co58       Co  0.86073379  0.97698691  0.22266083     1.51600
Co59       Co  0.86224362  0.02512694  0.27687286     1.51500
O60         O  0.87642312  0.00062206  0.24985630    -1.40600
C61         C  0.91313733  0.04866336  0.26673463     1.10900
C62         C  0.91030304  0.95147433  0.23177988     1.11000
C63         C  0.90256006  0.99208904  0.18997550     1.10900
C64         C  0.90276584  0.00806795  0.30999450     1.10900
C65         C  0.97520588  0.98587366  0.49637011     0.03700
C66         C  0.98169816  0.00750138  0.48233651     0.03700
C67         C  0.00238937  0.02231382  0.48990760     0.03700
C68         C  0.01785819  0.01422448  0.50994101     0.03700
C69         C  0.01050305  0.99351079  0.52474883     0.03700
C70         C  0.99010262  0.97838380  0.51704180     0.03700
O71         O  0.02041146  0.80477367  0.63581494    -0.78700
O72         O  0.97928190  0.69784233  0.63505247    -0.78700
O73         O  0.96124912  0.75058540  0.66444910    -0.78700
O74         O  0.03922723  0.75150697  0.66417331    -0.78700
O75         O  0.94448850  0.73121802  0.63283157    -0.78800
O76         O  0.05543599  0.77162821  0.63277928    -0.78700
O77         O  0.00065695  0.71545079  0.66541272    -0.78700
O78         O  0.99956849  0.78639454  0.66593137    -0.78700
C79         C  0.01322985  0.80401363  0.65840813     1.11000
C80         C  0.98650441  0.69825674  0.65765886     1.10900
C81         C  0.94307824  0.73858174  0.65527710     1.11000
C82         C  0.05703709  0.76424059  0.65521199     1.10900
O83         O  0.03560743  0.75200298  0.58627246    -0.78700
O84         O  0.96351200  0.75144719  0.58641196    -0.78800
O85         O  0.97956246  0.80679986  0.61917252    -0.78700
O86         O  0.02001617  0.69591497  0.61804293    -0.78700
O87         O  0.00002866  0.71397244  0.58743511    -0.78700
O88         O  0.99917403  0.78925810  0.58808495    -0.78700
O89         O  0.05351082  0.73058591  0.61626751    -0.78700
O90         O  0.94626101  0.77234826  0.61703191    -0.78700
Co91       Co  0.02519496  0.77705700  0.61093513     1.51500
Co92       Co  0.97432009  0.72596098  0.61065270     1.51700
Co93       Co  0.97415993  0.77658143  0.64151132     1.51600
Co94       Co  0.02586823  0.72580158  0.64086601     1.51500
O95         O  0.99990341  0.75133211  0.62607668    -1.40600
C96         C  0.05306385  0.73804491  0.59379866     1.10900
C97         C  0.94658262  0.76591717  0.59425123     1.11000
C98         C  0.98680336  0.80739657  0.59659355     1.10900
C99         C  0.01209901  0.69548723  0.59564624     1.10900
O100        O  0.20072440  0.86466417  0.02326259    -0.78700
O101        O  0.30335123  0.85786676  0.97554928    -0.78700
O102        O  0.24976760  0.83494519  0.96033267    -0.78700
O103        O  0.25198727  0.83846927  0.03994826    -0.78700
O104        O  0.26922510  0.86514826  0.94155069    -0.78800
O105        O  0.23593155  0.87170287  0.05643216    -0.78700
O106        O  0.28456830  0.83131216  0.00073130    -0.78700
O107        O  0.21641461  0.83430701  0.00015698    -0.78700
C108        C  0.20087863  0.84194820  0.01614434     1.11000
C109        C  0.30117582  0.83594746  0.98477883     1.10900
C110        C  0.26142891  0.84293623  0.94152751     1.11000
C111        C  0.24203887  0.84898365  0.05842354     1.10900
O112        O  0.25364858  0.91584282  0.03176086    -0.78700
O113        O  0.25402678  0.91238200  0.96235758    -0.78800
O114        O  0.19486199  0.87990656  0.98175835    -0.78700
O115        O  0.31006450  0.87714256  0.01463370    -0.78700
O116        O  0.29305688  0.90876943  0.99608900    -0.78700
O117        O  0.21307448  0.91220193  0.99817808    -0.78700
O118        O  0.27719869  0.88686580  0.04940182    -0.78700
O119        O  0.22902108  0.88372696  0.94678498    -0.78700
Co120      Co  0.22808337  0.89064076  0.02463796     1.51500
Co121      Co  0.27775700  0.88602909  0.97153116     1.51700
Co122      Co  0.22520974  0.85855060  0.97446149     1.51600
Co123      Co  0.27834058  0.85873970  0.02400542     1.51500
O124        O  0.25227541  0.87358638  0.99864578    -1.40600
C125        C  0.26951391  0.90938082  0.04807737     1.10900
C126        C  0.23707729  0.90609361  0.94714778     1.11000
C127        C  0.19409157  0.90272267  0.98782592     1.10900
C128        C  0.31175324  0.89926381  0.00655842     1.10900
O129        O  0.00481115  0.78484684  0.16910184    -0.78700
O130        O  0.00365501  0.71558721  0.16687114    -0.78700
O131        O  0.94594996  0.76989833  0.13640467    -0.78700
O132        O  0.05878825  0.73281816  0.12978966    -0.78700
O133        O  0.96429640  0.75008110  0.16676369    -0.78800
O134        O  0.04334227  0.75021081  0.16299764    -0.78700
O135        O  0.02460529  0.69860276  0.13591540    -0.78700
O136        O  0.98037576  0.80345099  0.14163200    -0.78700
C137        C  0.98919962  0.80163279  0.16371244     1.11000
C138        C  0.01732522  0.69830828  0.15855394     1.10900
C139        C  0.94542378  0.76154151  0.15845702     1.11000
C140        C  0.06109976  0.73877211  0.15255442     1.10900
O141        O  0.05352122  0.77420674  0.11457836    -0.78700
O142        O  0.94933341  0.72931182  0.11891393    -0.78800
O143        O  0.00009262  0.79178742  0.09119962    -0.78700
O144        O  0.00007897  0.71256881  0.08895343    -0.78700
O145        O  0.98303682  0.69489748  0.12113242    -0.78700
O146        O  0.01986895  0.80841406  0.12243118    -0.78700
O147        O  0.03482103  0.75178871  0.08543388    -0.78700
O148        O  0.96489429  0.75296350  0.08900976    -0.78700
Co149      Co  0.02808495  0.77684106  0.14209625     1.51500
Co150      Co  0.97748742  0.72507457  0.14317155     1.51700
Co151      Co  0.97549273  0.77725214  0.11456177     1.51600
Co152      Co  0.02704052  0.72630266  0.11049436     1.51500
O153        O  0.00199791  0.75136225  0.12752481    -1.40600
C154        C  0.05106620  0.76769374  0.09184229     1.10900
C155        C  0.94859887  0.73770619  0.09673695     1.11000
C156        C  0.01180161  0.81013558  0.10017554     1.10900
C157        C  0.98883849  0.69400987  0.09822890     1.10900
C158        C  0.26572563  0.77222016  0.24278860     0.03700
C159        C  0.24580927  0.76423245  0.22734717     0.03700
C160        C  0.23143277  0.74329552  0.23441390     0.03700
C161        C  0.23825790  0.72924691  0.25574966     0.03700
C162        C  0.25791888  0.73746531  0.27146438     0.03700
C163        C  0.27250757  0.75824052  0.26418821     0.03700
O164        O  0.21512916  0.66804365  0.50055139    -0.78700
O165        O  0.28397681  0.66741314  0.50002045    -0.78700
O166        O  0.23251705  0.63267133  0.55760931    -0.78700
O167        O  0.26555652  0.63179162  0.44290818    -0.78700
O168        O  0.25080491  0.66413701  0.53974358    -0.78800
O169        O  0.24864849  0.66422600  0.46034945    -0.78700
O170        O  0.30035213  0.63809285  0.47618675    -0.78700
O171        O  0.19813441  0.63885009  0.52405854    -0.78700
C172        C  0.19853080  0.66114476  0.51584914     1.11000
C173        C  0.29899325  0.66078709  0.48307380     1.10900
C174        C  0.23971275  0.65513200  0.55839122     1.11000
C175        C  0.25889722  0.65443943  0.44154792     1.10900
O176        O  0.22521004  0.61539697  0.44937205    -0.78700
O177        O  0.27336928  0.61547203  0.55185284    -0.78800
O178        O  0.20903079  0.59022858  0.50150889    -0.78700
O179        O  0.28869352  0.58980152  0.49956972    -0.78700
O180        O  0.30673960  0.62167662  0.51674589    -0.78700
O181        O  0.19219118  0.62237575  0.48352020    -0.78700
O182        O  0.24880114  0.58639045  0.46677459    -0.78700
O183        O  0.24894430  0.58660587  0.53525479    -0.78700
Co184      Co  0.22303801  0.64234395  0.47568246     1.51500
Co185      Co  0.27610703  0.64192881  0.52499257     1.51700
Co186      Co  0.22444049  0.61230557  0.52695435     1.51600
Co187      Co  0.27370147  0.61176271  0.47399560     1.51500
O188        O  0.24932447  0.62708751  0.50046280    -1.40600
C189        C  0.23269874  0.59284866  0.45084946     1.10900
C190        C  0.26519253  0.59312356  0.55109747     1.11000
C191        C  0.19055690  0.59988043  0.49045523     1.10900
C192        C  0.30778110  0.59919998  0.50959437     1.10900
C193        C  0.23668928  0.77140144  0.75629748     0.03700
C194        C  0.22855779  0.75606786  0.73618579     0.03700
C195        C  0.24316480  0.73508299  0.72900171     0.03700
C196        C  0.26433126  0.72794557  0.74335670     0.03700
C197        C  0.27226406  0.74309046  0.76352479     0.03700
C198        C  0.25773271  0.76397435  0.77069592     0.03700
O199        O  0.44706019  0.76814926  0.88098107    -0.78700
O200        O  0.55428529  0.72671607  0.88512459    -0.78700
O201        O  0.49941382  0.70831187  0.91098048    -0.78700
O202        O  0.49922059  0.78559193  0.91159100    -0.78700
O203        O  0.52096759  0.69138389  0.88093170    -0.78800
O204        O  0.48060645  0.80304030  0.88004404    -0.78700
O205        O  0.53480854  0.74798385  0.91421840    -0.78700
O206        O  0.46353545  0.74628481  0.91138975    -0.78700
C207        C  0.44707334  0.76132223  0.90367029     1.11000
C208        C  0.55269293  0.73432407  0.90752974     1.10900
C209        C  0.51218978  0.69021309  0.90289842     1.11000
C210        C  0.48745774  0.80397787  0.90272710     1.10900
O211        O  0.50164166  0.78356628  0.83378924    -0.78700
O212        O  0.50325277  0.71194697  0.83350756    -0.78800
O213        O  0.44537440  0.72732032  0.86363406    -0.78700
O214        O  0.55672380  0.76758407  0.86803154    -0.78700
O215        O  0.54003152  0.74777366  0.83674370    -0.78700
O216        O  0.46379892  0.74757287  0.83355692    -0.78700
O217        O  0.52202587  0.80120896  0.86459391    -0.78700
O218        O  0.48055275  0.69361916  0.86212548    -0.78700
Co219      Co  0.47570470  0.77303695  0.85737733     1.51500
Co220      Co  0.52727090  0.72185696  0.85924589     1.51700
Co221      Co  0.47467742  0.72131736  0.88689630     1.51600
Co222      Co  0.52578804  0.77315275  0.88928570     1.51500
O223        O  0.50083871  0.74730701  0.87324058    -1.40600
C224        C  0.51473826  0.80134229  0.84201404     1.10900
C225        C  0.48927483  0.69425951  0.84008413     1.11000
C226        C  0.44521281  0.73534997  0.84134012     1.10900
C227        C  0.55811456  0.75984440  0.84567459     1.10900
C228        C  0.75447908  0.23364660  0.76891944     0.03700
C229        C  0.77034671  0.25378055  0.76228164     0.03700
C230        C  0.76416441  0.26930297  0.74175974     0.03700
C231        C  0.74343753  0.26324932  0.72644582     0.03700
C232        C  0.72746332  0.24324505  0.73308390     0.03700
C233        C  0.73366036  0.22769534  0.75361460     0.03700
O234        O  0.88694957  0.45142477  0.77711343    -0.78700
O235        O  0.88316145  0.55039878  0.72415548    -0.78700
O236        O  0.90945588  0.49908913  0.70985108    -0.78700
O237        O  0.90864812  0.50432695  0.79145506    -0.78700
O238        O  0.87650184  0.51429107  0.69209528    -0.78800
O239        O  0.87677650  0.48689394  0.80897864    -0.78700
O240        O  0.91232599  0.53620609  0.74972993    -0.78700
O241        O  0.91487976  0.46820889  0.75176515    -0.78700
C242        C  0.90935236  0.45319372  0.76912442     1.11000
C243        C  0.90527547  0.55132298  0.73291619     1.10900
C244        C  0.89936314  0.50871268  0.69083147     1.11000
C245        C  0.89921029  0.49411801  0.81045725     1.10900
O246        O  0.83124693  0.49982462  0.78282965    -0.78700
O247        O  0.83183585  0.49809652  0.71661301    -0.78800
O248        O  0.87058280  0.44161759  0.73691677    -0.78700
O249        O  0.86636175  0.55871829  0.76463981    -0.78700
O250        O  0.83468074  0.54067623  0.74696835    -0.78700
O251        O  0.83755898  0.45865790  0.75252441    -0.78700
O252        O  0.85816951  0.52609098  0.79987987    -0.78700
O253        O  0.86113932  0.47352965  0.70088245    -0.78700
Co254      Co  0.85836471  0.47626909  0.77760942     1.51500
Co255      Co  0.85695025  0.52363613  0.72280931     1.51700
Co256      Co  0.88861966  0.47341209  0.72691072     1.51600
Co257      Co  0.88623828  0.52844761  0.77436434     1.51500
O258        O  0.87262912  0.50051369  0.75039847    -1.40600
C259        C  0.83621569  0.51682080  0.79830502     1.10900
C260        C  0.83857025  0.48122282  0.70156746     1.11000
C261        C  0.84794657  0.43971386  0.74333394     1.10900
C262        C  0.84412914  0.55985048  0.75695512     1.10900
O263        O  0.99834990  0.21600417  0.33578017    -0.78700
O264        O  0.00294604  0.28456042  0.33649351    -0.78700
O265        O  0.94204313  0.23752808  0.37160566    -0.78700
O266        O  0.05889044  0.26236136  0.37271149    -0.78700
O267        O  0.96085052  0.25368842  0.33963499    -0.78800
O268        O  0.04062372  0.24655862  0.34019248    -0.78700
O269        O  0.02820273  0.29944174  0.36565816    -0.78700
O270        O  0.97304611  0.20048833  0.36431007    -0.78700
C271        C  0.98127791  0.20089384  0.34193518     1.11000
C272        C  0.02041355  0.29903607  0.34315768     1.10900
C273        C  0.94154166  0.24399008  0.34890967     1.11000
C274        C  0.06003103  0.25554924  0.35007277     1.10900
O275        O  0.04934822  0.22256090  0.38918483    -0.78700
O276        O  0.95100232  0.27737298  0.38903751    -0.78800
O277        O  0.99665693  0.20978153  0.41354103    -0.78700
O278        O  0.00384058  0.29062627  0.41425407    -0.78700
O279        O  0.98772725  0.30865114  0.38176251    -0.78700
O280        O  0.01298364  0.19153368  0.38139986    -0.78700
O281        O  0.03346799  0.24751146  0.41791471    -0.78700
O282        O  0.96654757  0.25178984  0.41741699    -0.78700
Co283      Co  0.02329218  0.22205769  0.36185274     1.51500
Co284      Co  0.97755514  0.27823003  0.36196969     1.51700
Co285      Co  0.97234658  0.22691613  0.39146479     1.51600
Co286      Co  0.02829281  0.27293675  0.39235534     1.51500
O287        O  0.00036896  0.25010269  0.37687022    -1.40600
C288        C  0.04803065  0.22998235  0.41179011     1.10900
C289        C  0.95173975  0.26911610  0.41142409     1.11000
C290        C  0.00651917  0.19064233  0.40407712     1.10900
C291        C  0.99432882  0.30984693  0.40440815     1.10900
C292        C  0.26772514  0.22991197  0.25864796     0.03700
C293        C  0.24774874  0.23654629  0.27481800     0.03700
C294        C  0.23176419  0.25655791  0.26839340     0.03700
C295        C  0.23773751  0.27209563  0.24791078     0.03700
C296        C  0.25746948  0.26550496  0.23152784     0.03700
C297        C  0.27332929  0.24511316  0.23759168     0.03700
O298        O  0.21515788  0.33492670  0.99781624    -0.78700
O299        O  0.28273922  0.33160522  0.00024428    -0.78700
O300        O  0.23431623  0.37000787  0.94271394    -0.78700
O301        O  0.26721945  0.36465827  0.05762641    -0.78700
O302        O  0.25109379  0.33728892  0.95999537    -0.78800
O303        O  0.24731807  0.33445362  0.03913907    -0.78700
O304        O  0.30180726  0.35882959  0.02443478    -0.78700
O305        O  0.19897788  0.36574857  0.97579476    -0.78700
C306        C  0.19914483  0.34294183  0.98245787     1.11000
C307        C  0.29944449  0.33670473  0.01592235     1.10900
C308        C  0.24084114  0.34728077  0.94131237     1.11000
C309        C  0.25857403  0.34269160  0.05817110     1.10900
O310        O  0.22706233  0.38307488  0.05286448    -0.78700
O311        O  0.27578531  0.38454843  0.94970280    -0.78800
O312        O  0.21295323  0.41286510  0.00007774    -0.78700
O313        O  0.29112745  0.40925772  0.00355071    -0.78700
O314        O  0.30820928  0.37746696  0.98508644    -0.78700
O315        O  0.19452577  0.38096263  0.01701326    -0.78700
O316        O  0.25155501  0.41220787  0.03725963    -0.78700
O317        O  0.25376726  0.41480011  0.96658172    -0.78700
Co318      Co  0.22361167  0.35856558  0.02441961     1.51500
Co319      Co  0.27691502  0.35801647  0.97599555     1.51700
Co320      Co  0.22722702  0.39049088  0.97398188     1.51600
Co321      Co  0.27580662  0.38627936  0.02803400     1.51500
O322        O  0.25081684  0.37350251  0.00062943    -1.40600
C323        C  0.23596605  0.40509032  0.05343849     1.10900
C324        C  0.26986348  0.40747302  0.95090551     1.11000
C325        C  0.19428444  0.40389583  0.01143656     1.10900
C326        C  0.30958213  0.39993740  0.99239797     1.10900
C327        C  0.25537641  0.23761892  0.72678347     0.03700
C328        C  0.23452990  0.23083250  0.74174902     0.03700
C329        C  0.22775959  0.24586910  0.76260522     0.03700
C330        C  0.24331736  0.26611015  0.76989988     0.03700
C331        C  0.26397781  0.27296662  0.75479988     0.03700
C332        C  0.27080421  0.25802909  0.73392962     0.03700
O333        O  0.55200896  0.26974446  0.61393753    -0.78700
O334        O  0.44490698  0.22857233  0.61759212    -0.78700
O335        O  0.49735349  0.20966694  0.58688667    -0.78700
O336        O  0.49806195  0.28771944  0.58594983    -0.78700
O337        O  0.47837929  0.19355348  0.61905249    -0.78800
O338        O  0.51878699  0.30445618  0.61669111    -0.78700
O339        O  0.46164315  0.24949393  0.58652306    -0.78700
O340        O  0.53392294  0.24797890  0.58418994    -0.78700
C341        C  0.55130866  0.26225415  0.59146479     1.11000
C342        C  0.44415880  0.23629304  0.59518273     1.10900
C343        C  0.48485391  0.19195494  0.59634119     1.11000
C344        C  0.51117520  0.30558225  0.59424634     1.10900
O345        O  0.50006522  0.28483825  0.66414009    -0.78700
O346        O  0.49981359  0.21328067  0.66487478    -0.78800
O347        O  0.55461992  0.22886216  0.63088651    -0.78700
O348        O  0.44391917  0.26975894  0.63400629    -0.78700
O349        O  0.46197498  0.24957441  0.66452863    -0.78700
O350        O  0.53766879  0.24901934  0.66195283    -0.78700
O351        O  0.47857851  0.30316673  0.63444525    -0.78700
O352        O  0.52000200  0.19514079  0.63423288    -0.78700
Co353      Co  0.52472486  0.27458369  0.63908118     1.51500
Co354      Co  0.47372084  0.22370871  0.64113917     1.51700
Co355      Co  0.52396938  0.22288463  0.60925806     1.51600
Co356      Co  0.47306083  0.27500811  0.61030114     1.51500
O357        O  0.49886054  0.24899797  0.62474288    -1.40600
C358        C  0.48595625  0.30224856  0.65694869     1.10900
C359        C  0.51347578  0.19573826  0.65702124     1.11000
C360        C  0.55594794  0.23714191  0.65307529     1.10900
C361        C  0.44363992  0.26204863  0.65644449     1.10900
O362        O  0.33331880  0.99931566  0.21678417    -0.78700
O363        O  0.33355223  0.99945464  0.28559721    -0.78700
O364        O  0.37056880  0.94305587  0.23382854    -0.78700
O365        O  0.36823483  0.05681378  0.26908917    -0.78700
O366        O  0.33783106  0.95954008  0.25115850    -0.78800
O367        O  0.33659922  0.03885473  0.25093319    -0.78700
O368        O  0.36296521  0.02279926  0.30275931    -0.78700
O369        O  0.36284105  0.97623588  0.19961320    -0.78700
C370        C  0.34003657  0.98301989  0.20105433     1.11000
C371        C  0.34046085  0.01520114  0.30188145     1.10900
C372        C  0.34795824  0.94124898  0.24025290     1.11000
C373        C  0.34558321  0.05748237  0.26225887     1.10900
O374        O  0.38454837  0.05140546  0.22811970    -0.78700
O375        O  0.38658203  0.94877220  0.27439451    -0.78800
O376        O  0.41123121  0.00034724  0.21089047    -0.78700
O377        O  0.41156320  0.00061987  0.29178990    -0.78700
O378        O  0.37930765  0.98224180  0.30814257    -0.78700
O379        O  0.37858825  0.01721508  0.19388444    -0.78700
O380        O  0.41450902  0.03501952  0.25122825    -0.78700
O381        O  0.41555179  0.96656971  0.25103827    -0.78700
Co382      Co  0.35858960  0.02448830  0.22505526     1.51500
Co383      Co  0.35941373  0.97475395  0.27712718     1.51700
Co384      Co  0.38984206  0.97421008  0.22607638     1.51600
Co385      Co  0.38921126  0.02616027  0.27633417     1.51500
O386        O  0.37431588  0.99992154  0.25118300    -1.40600
C387        C  0.40722918  0.05095380  0.23530619     1.10900
C388        C  0.40928111  0.95075004  0.26746664     1.11000
C389        C  0.40124943  0.01071352  0.19220463     1.10900
C390        C  0.40187663  0.98895221  0.30996417     1.10900
C391        C  0.49219544  0.02052535  0.51626899     0.03700
C392        C  0.51327190  0.00589507  0.52295577     0.03700
C393        C  0.52017811  0.98517901  0.50787750     0.03700
C394        C  0.50463733  0.97745539  0.48774646     0.03700
C395        C  0.48355299  0.99216955  0.48114114     0.03700
C396        C  0.47661312  0.01285772  0.49620936     0.03700
O397        O  0.46362359  0.74965399  0.41264290    -0.78700
O398        O  0.53457822  0.75049092  0.41428606    -0.78700
O399        O  0.48153285  0.69336563  0.38002647    -0.78700
O400        O  0.51853067  0.80634361  0.38115001    -0.78700
O401        O  0.50008924  0.71101960  0.41165600    -0.78800
O402        O  0.49850397  0.78867291  0.41180788    -0.78700
O403        O  0.55239170  0.77261106  0.38468755    -0.78700
O404        O  0.44682876  0.72765659  0.38230091    -0.78700
C405        C  0.44660260  0.73541661  0.40470106     1.11000
C406        C  0.55159386  0.76517894  0.40716981     1.10900
C407        C  0.48834946  0.69257543  0.40272974     1.11000
C408        C  0.51051493  0.80716130  0.40345233     1.10900
O409        O  0.47816606  0.80294767  0.36334059    -0.78700
O410        O  0.52297572  0.69743043  0.36400321    -0.78800
O411        O  0.46201387  0.74911543  0.33489480    -0.78700
O412        O  0.54029951  0.75086598  0.33632937    -0.78700
O413        O  0.55671785  0.73188195  0.36830329    -0.78700
O414        O  0.44404283  0.76886372  0.36562408    -0.78700
O415        O  0.50057770  0.78547323  0.33373604    -0.78700
O416        O  0.50087225  0.71457589  0.33387725    -0.78700
Co417      Co  0.47362615  0.77513001  0.38819427     1.51500
Co418      Co  0.52596973  0.72503120  0.38930685     1.51700
Co419      Co  0.47517813  0.72367514  0.35811318     1.51600
Co420      Co  0.52546513  0.77619926  0.35906245     1.51500
O421        O  0.50004244  0.74997178  0.37361254    -1.40600
C422        C  0.48644373  0.80280855  0.34109952     1.10900
C423        C  0.51644279  0.69850616  0.34120231     1.11000
C424        C  0.44370803  0.76144393  0.34317063     1.10900
C425        C  0.55855532  0.73919418  0.34583035     1.10900
O426        O  0.58279427  0.96585591  0.75305645    -0.78700
O427        O  0.58522918  0.03554331  0.75318576    -0.78700
O428        O  0.61739391  0.98076989  0.80840986    -0.78700
O429        O  0.61590743  0.01898380  0.69560567    -0.78700
O430        O  0.58671673  0.00125366  0.79136702    -0.78800
O431        O  0.58466972  0.00055432  0.71395157    -0.78700
O432        O  0.61452196  0.05304379  0.73049546    -0.78700
O433        O  0.61267015  0.94736197  0.77423799    -0.78700
C434        C  0.58998736  0.94854407  0.76737030     1.11000
C435        C  0.59218006  0.05235455  0.73838358     1.10900
C436        C  0.59505978  0.98864936  0.80936686     1.11000
C437        C  0.59327764  0.01202062  0.69524873     1.10900
O438        O  0.63161865  0.97727850  0.69862520    -0.78700
O439        O  0.63570698  0.02107463  0.80530171    -0.78800
O440        O  0.66051644  0.96020161  0.75144423    -0.78700
O441        O  0.66268108  0.03715009  0.75032818    -0.78700
O442        O  0.63287646  0.05555809  0.77097766    -0.78700
O443        O  0.62809412  0.94385258  0.73316244    -0.78700
O444        O  0.66246649  0.99901241  0.71493177    -0.78700
O445        O  0.66444714  0.99852729  0.78668697    -0.78700
Co446      Co  0.60713076  0.97445337  0.72707268     1.51500
Co447      Co  0.61028379  0.02596656  0.77789227     1.51700
Co448      Co  0.63864645  0.97411576  0.77766779     1.51600
Co449      Co  0.63866676  0.02473288  0.72538324     1.51500
O450        O  0.62380835  0.99982382  0.75196493    -1.40600
C451        C  0.65443777  0.98380885  0.69878619     1.10900
C452        C  0.65791738  0.01282554  0.80418793     1.11000
C453        C  0.65079044  0.94224846  0.73962857     1.10900
C454        C  0.65491500  0.05583344  0.76235712     1.10900
C455        C  0.51743136  0.98896499  0.98118172     0.03700
C456        C  0.49729680  0.97332215  0.98836125     0.03700
C457        C  0.48182331  0.98047504  0.00861799     0.03700
C458        C  0.48782164  0.00163933  0.02332270     0.03700
C459        C  0.50818724  0.01714783  0.01636738     0.03700
C460        C  0.52390479  0.00997936  0.99615120     0.03700
O461        O  0.46544301  0.24852600  0.08179409    -0.78700
O462        O  0.53555586  0.24848125  0.08209535    -0.78700
O463        O  0.48243261  0.30477218  0.11732688    -0.78700
O464        O  0.51870054  0.19156633  0.11576340    -0.78700
O465        O  0.50066152  0.28799553  0.08514207    -0.78800
O466        O  0.49972726  0.20902584  0.08432120    -0.78700
O467        O  0.55235819  0.22578215  0.11190775    -0.78700
O468        O  0.44827954  0.27125971  0.11148669    -0.78700
C469        C  0.44924752  0.26418696  0.08878930     1.11000
C470        C  0.55172496  0.23278183  0.08924630     1.10900
C471        C  0.48916503  0.30626167  0.09471163     1.11000
C472        C  0.51125805  0.19050128  0.09330847     1.10900
O473        O  0.47752670  0.19572052  0.13204591    -0.78700
O474        O  0.52304219  0.30003215  0.13369019    -0.78800
O475        O  0.46052129  0.24796563  0.15965662    -0.78700
O476        O  0.53953621  0.24742141  0.16028629    -0.78700
O477        O  0.55699008  0.26611320  0.12872967    -0.78700
O478        O  0.44330803  0.23026087  0.12742634    -0.78700
O479        O  0.50007657  0.21239146  0.16212977    -0.78700
O480        O  0.50036040  0.28268193  0.16324714    -0.78700
Co481      Co  0.47407842  0.22322139  0.10674549     1.51500
Co482      Co  0.52640730  0.27333408  0.10753762     1.51700
Co483      Co  0.47519756  0.27403683  0.13775222     1.51600
Co484      Co  0.52528746  0.22195459  0.13736941     1.51500
O485        O  0.50023231  0.24811078  0.12231725    -1.40600
C486        C  0.48581299  0.19526536  0.15432121     1.10900
C487        C  0.51648535  0.29863134  0.15647799     1.11000
C488        C  0.44185154  0.23717105  0.15000224     1.10900
C489        C  0.55820830  0.25864470  0.15118843     1.10900
O490        O  0.19509219  0.13631204  0.47945812    -0.78700
O491        O  0.29957096  0.13278107  0.52617383    -0.78700
O492        O  0.24664376  0.15665721  0.54375161    -0.78700
O493        O  0.24892321  0.16516579  0.46654567    -0.78700
O494        O  0.26497265  0.12382149  0.55883641    -0.78800
O495        O  0.23006199  0.13619712  0.44534982    -0.78700
O496        O  0.28174537  0.16368303  0.50601526    -0.78700
O497        O  0.21227090  0.16302215  0.50559282    -0.78700
C498        C  0.19557338  0.15760515  0.48989971     1.11000
C499        C  0.29771386  0.15599561  0.52154039     1.10900
C500        C  0.25848391  0.14646926  0.56134114     1.11000
C501        C  0.23794684  0.15844018  0.44688082     1.10900
O502        O  0.24805912  0.08793350  0.46234856    -0.78700
O503        O  0.24832627  0.07957552  0.53097957    -0.78800
O504        O  0.19106164  0.11470390  0.51816714    -0.78700
O505        O  0.30515290  0.12002427  0.48407107    -0.78700
O506        O  0.28748154  0.08656353  0.49829995    -0.78700
O507        O  0.20831232  0.08588603  0.49542330    -0.78700
O508        O  0.27118320  0.11874816  0.44820005    -0.78700
O509        O  0.22504534  0.10634535  0.55165675    -0.78700
Co510      Co  0.22269339  0.11160501  0.47322006     1.51500
Co511      Co  0.27280034  0.10609816  0.52600375     1.51700
Co512      Co  0.22132766  0.13523599  0.52758869     1.51600
Co513      Co  0.27424101  0.14127276  0.47833711     1.51500
O514        O  0.24769730  0.12348648  0.50119621    -1.40600
C515        C  0.26295952  0.09654224  0.44633614     1.10900
C516        C  0.23301234  0.08421622  0.54812141     1.11000
C517        C  0.19002472  0.09325154  0.50828878     1.10900
C518        C  0.30643350  0.09694520  0.48911378     1.10900
C519        C  0.76564203  0.76981817  0.25444815     0.03700
C520        C  0.74545159  0.76275045  0.27025408     0.03700
C521        C  0.73026572  0.74182952  0.26375953     0.03700
C522        C  0.73715444  0.72617404  0.24337411     0.03700
C523        C  0.75775350  0.73291708  0.22808941     0.03700
C524        C  0.77272878  0.75389991  0.23443765     0.03700
O525        O  0.61317318  0.54912124  0.27376094    -0.78700
O526        O  0.61185278  0.44647903  0.22607564    -0.78700
O527        O  0.58694511  0.49925961  0.20938622    -0.78700
O528        O  0.58793671  0.49697167  0.29024565    -0.78700
O529        O  0.61860587  0.48060608  0.19231019    -0.78800
O530        O  0.62025493  0.51430570  0.30732838    -0.78700
O531        O  0.58349650  0.46413458  0.25017545    -0.78700
O532        O  0.58392073  0.53269303  0.24964794    -0.78700
C533        C  0.59061709  0.54818705  0.26617661     1.11000
C534        C  0.58955644  0.44774192  0.23441098     1.10900
C535        C  0.59624022  0.48792801  0.19090710     1.11000
C536        C  0.59775090  0.50728445  0.30901008     1.10900
O537        O  0.66566675  0.49765323  0.28359401    -0.78700
O538        O  0.66454883  0.49777473  0.21441123    -0.78800
O539        O  0.62951656  0.55538318  0.23254344    -0.78700
O540        O  0.62967059  0.44052108  0.26601249    -0.78700
O541        O  0.66144910  0.45832306  0.24842034    -0.78700
O542        O  0.66140457  0.53763528  0.25019144    -0.78700
O543        O  0.63682868  0.47382440  0.30064489    -0.78700
O544        O  0.63539220  0.52161245  0.19757172    -0.78700
Co545      Co  0.63979824  0.52250009  0.27602019     1.51500
Co546      Co  0.63892287  0.47300421  0.22300777     1.51700
Co547      Co  0.60924999  0.52456807  0.22461053     1.51600
Co548      Co  0.60969113  0.47154462  0.27451351     1.51500
O549        O  0.62433729  0.49798999  0.24948972    -1.40600
C550        C  0.65942428  0.48119286  0.29933386     1.10900
C551        C  0.65771932  0.51344455  0.19812436     1.11000
C552        C  0.65215174  0.55633655  0.23923222     1.10900
C553        C  0.65219829  0.43951369  0.25900566     1.10900
C554        C  0.77159444  0.24311358  0.26467758     0.03700
C555        C  0.76454664  0.22804850  0.24405791     0.03700
C556        C  0.74356922  0.23472504  0.22919817     0.03700
C557        C  0.72802107  0.25485843  0.23663990     0.03700
C558        C  0.73515358  0.26998940  0.25719978     0.03700
C559        C  0.75613708  0.26331368  0.27198432     0.03700
C560        C  0.77190211  0.74781751  0.73479530     0.03700
C561        C  0.76516823  0.73230482  0.75523163     0.03700
C562        C  0.74443857  0.73866967  0.77038588     0.03700
C563        C  0.72843258  0.75851283  0.76299644     0.03700
C564        C  0.73496410  0.77382929  0.74223719     0.03700
C565        C  0.75621893  0.76786705  0.72751323     0.03700
O566        O  0.16703102  0.00153753  0.78493329    -0.78700
O567        O  0.16462880  0.00279930  0.71522128    -0.78700
O568        O  0.13534696  0.94395536  0.76853781    -0.78700
O569        O  0.12920728  0.05746132  0.73294299    -0.78700
O570        O  0.16545462  0.96264299  0.74869130    -0.78800
O571        O  0.16228989  0.04151332  0.75056195    -0.78700
O572        O  0.13360439  0.02398043  0.69863698    -0.78700
O573        O  0.13851595  0.97812593  0.80296429    -0.78700
C574        C  0.16056883  0.98692579  0.80225725     1.11000
C575        C  0.15664540  0.01834113  0.69936971     1.10900
C576        C  0.15767292  0.94391363  0.76073203     1.11000
C577        C  0.15194920  0.05958107  0.73929308     1.10900
O578        O  0.11444620  0.05209841  0.77406318    -0.78700
O579        O  0.11735924  0.94736006  0.72794913    -0.78800
O580        O  0.08928233  0.99778221  0.78989819    -0.78700
O581        O  0.08674000  0.99973816  0.71279256    -0.78700
O582        O  0.11874118  0.98263774  0.69453302    -0.78700
O583        O  0.11998590  0.01809026  0.80730352    -0.78700
O584        O  0.08420692  0.03450720  0.75264310    -0.78700
O585        O  0.08777169  0.96375133  0.75108057    -0.78700
Co586      Co  0.14085257  0.02588879  0.77661959     1.51500
Co587      Co  0.14130144  0.97613880  0.72411531     1.51700
Co588      Co  0.11280172  0.97339895  0.77586787     1.51600
Co589      Co  0.10878511  0.02621000  0.72658348     1.51500
O590        O  0.12594801  0.00040196  0.75079745    -1.40600
C591        C  0.09165395  0.05128753  0.76754872     1.10900
C592        C  0.09502188  0.94726163  0.73596025     1.11000
C593        C  0.09781168  0.00982347  0.80821262     1.10900
C594        C  0.09587881  0.98880522  0.69395978     1.10900
O595        O  0.75099158  0.41516064  0.53398341    -0.78700
O596        O  0.75149771  0.41702600  0.46646940    -0.78700
O597        O  0.80769444  0.37772087  0.51576014    -0.78700
O598        O  0.69233738  0.38324632  0.48225947    -0.78700
O599        O  0.79101704  0.41070003  0.49933315    -0.78800
O600        O  0.71058757  0.41397041  0.50129042    -0.78700
O601        O  0.72637603  0.38996184  0.44813548    -0.78700
O602        O  0.77414723  0.38524530  0.55048228    -0.78700
C603        C  0.76723721  0.40799319  0.54952919     1.11000
C604        C  0.73548209  0.41194624  0.44997324     1.10900
C605        C  0.80963059  0.40038573  0.50933779     1.11000
C606        C  0.69160253  0.40540498  0.49031251     1.10900
O607        O  0.69734555  0.36531298  0.52272660    -0.78700
O608        O  0.80027658  0.36196618  0.47491799    -0.78800
O609        O  0.74917233  0.33757350  0.53860194    -0.78700
O610        O  0.74722423  0.33938615  0.45873568    -0.78700
O611        O  0.76585010  0.37104315  0.44182648    -0.78700
O612        O  0.73274141  0.37006636  0.55626689    -0.78700
O613        O  0.71320606  0.33629876  0.49817808    -0.78700
O614        O  0.78267165  0.33320201  0.49864161    -0.78700
Co615      Co  0.72518116  0.39074857  0.52592012     1.51500
Co616      Co  0.77493312  0.38995571  0.47326730     1.51700
Co617      Co  0.77568826  0.35883896  0.52367394     1.51600
Co618      Co  0.72249408  0.36228329  0.47398974     1.51500
O619        O  0.74953285  0.37535323  0.49925554    -1.40600
C620        C  0.69698962  0.34319550  0.51388932     1.10900
C621        C  0.79876790  0.33947370  0.48258214     1.11000
C622        C  0.73872146  0.34729396  0.55734371     1.10900
C623        C  0.75848188  0.34865781  0.44031168     1.10900
C624        C  0.01962822  0.51818757  0.49378856     0.03700
C625        C  0.00424925  0.52468194  0.51436827     0.03700
C626        C  0.98403481  0.50891556  0.52117193     0.03700
C627        C  0.97789407  0.48807967  0.50589488     0.03700
C628        C  0.99328887  0.48167365  0.48535558     0.03700
C629        C  0.01322901  0.49755756  0.47844813     0.03700
O630        O  0.80131866  0.63292290  0.02573428    -0.78700
O631        O  0.70149185  0.63708512  0.97254870    -0.78700
O632        O  0.75547399  0.66246305  0.95938483    -0.78700
O633        O  0.74920714  0.66062709  0.03938717    -0.78700
O634        O  0.73762509  0.63090367  0.94118198    -0.78800
O635        O  0.76488124  0.62731746  0.05654010    -0.78700
O636        O  0.71758327  0.66592043  0.99708994    -0.78700
O637        O  0.78703062  0.66356626  0.00211845    -0.78700
C638        C  0.80154773  0.65578705  0.01915998     1.11000
C639        C  0.70259675  0.65967367  0.97985127     1.10900
C640        C  0.74463580  0.65347199  0.94037418     1.11000
C641        C  0.75929998  0.65020199  0.05806166     1.10900
O642        O  0.74716837  0.58282860  0.03220846    -0.78700
O643        O  0.75239984  0.58461181  0.96464401    -0.78800
O644        O  0.80896678  0.61756588  0.98516613    -0.78700
O645        O  0.69280349  0.62035342  0.01232257    -0.78700
O646        O  0.71054498  0.58815880  0.99533455    -0.78700
O647        O  0.78973643  0.58541098  0.00082239    -0.78700
O648        O  0.72405661  0.61285421  0.04842754    -0.78700
O649        O  0.77744572  0.61312118  0.94861744    -0.78700
Co650      Co  0.77366289  0.60743553  0.02600507     1.51500
Co651      Co  0.72759466  0.61029883  0.97111834     1.51700
Co652      Co  0.77939670  0.63905925  0.97588957     1.51600
Co653      Co  0.72371239  0.63977792  0.02220595     1.51500
O654        O  0.75111756  0.62435752  0.99882862    -1.40600
C655        C  0.73045620  0.58995987  0.04736989     1.10900
C656        C  0.76915601  0.59082404  0.94931777     1.11000
C657        C  0.80929733  0.59482050  0.99159116     1.10900
C658        C  0.69152939  0.59777339  0.00539579     1.10900
C659        C  0.48638305  0.50390405  0.97676399     0.03700
C660        C  0.50739100  0.51849734  0.98331509     0.03700
C661        C  0.52276839  0.51118358  0.00364797     0.03700
C662        C  0.51559139  0.49069260  0.01905096     0.03700
C663        C  0.49431846  0.47615738  0.01234097     0.03700
C664        C  0.47903420  0.48363760  0.99198415     0.03700
O665        O  0.78599450  0.16564491  0.99790166    -0.78700
O666        O  0.71843745  0.16711194  0.99799144    -0.78700
O667        O  0.76727406  0.12818960  0.94158429    -0.78700
O668        O  0.73482482  0.13279077  0.05690527    -0.78700
O669        O  0.75085264  0.16114305  0.95821104    -0.78800
O670        O  0.75337423  0.16385131  0.03871162    -0.78700
O671        O  0.70019159  0.13994046  0.02297778    -0.78700
O672        O  0.80232318  0.13581586  0.97466378    -0.78700
C673        C  0.80193987  0.15846966  0.98203310     1.11000
C674        C  0.70196156  0.16193445  0.01389045     1.10900
C675        C  0.76093763  0.15086146  0.93961269     1.11000
C676        C  0.74230762  0.15512776  0.05757314     1.10900
O677        O  0.77552145  0.11511580  0.05096695    -0.78700
O678        O  0.72663656  0.11251199  0.94911540    -0.78800
O679        O  0.79113892  0.08797686  0.99929754    -0.78700
O680        O  0.71051652  0.08946510  0.00202015    -0.78700
O681        O  0.69341930  0.12101848  0.98347225    -0.78700
O682        O  0.80866995  0.12048506  0.01579003    -0.78700
O683        O  0.75035054  0.08633227  0.03535641    -0.78700
O684        O  0.75017659  0.08366046  0.96672809    -0.78700
Co685      Co  0.77814331  0.14097552  0.02364884     1.51500
Co686      Co  0.72498437  0.14022892  0.97442450     1.51700
Co687      Co  0.77549473  0.10929444  0.97327900     1.51600
Co688      Co  0.72613312  0.11228431  0.02662638     1.51500
O689        O  0.75124511  0.12559170  0.99956632    -1.40600
C690        C  0.76741002  0.09274637  0.05040964     1.10900
C691        C  0.73333765  0.08980461  0.95130322     1.11000
C692        C  0.81003382  0.09780085  0.00944081     1.10900
C693        C  0.69188236  0.09861625  0.99096530     1.10900
O694        O  0.36476114  0.52358933  0.69787558    -0.78700
O695        O  0.36471141  0.47892254  0.80306843    -0.78700
O696        O  0.33612588  0.46293814  0.74980560    -0.78700
O697        O  0.33861061  0.54107993  0.75105739    -0.78700
O698        O  0.36682247  0.44438204  0.76908184    -0.78800
O699        O  0.37055696  0.55726237  0.73204669    -0.78700
O700        O  0.33556303  0.50213448  0.78567313    -0.78700
O701        O  0.33476982  0.50179931  0.71550433    -0.78700
C702        C  0.34188089  0.51734191  0.69936190     1.11000
C703        C  0.34243595  0.48706592  0.80241225     1.10900
C704        C  0.34437955  0.44426367  0.76158771     1.11000
C705        C  0.34804931  0.55902463  0.73905406     1.10900
O706        O  0.41629033  0.53419770  0.75006271    -0.78700
O707        O  0.41376728  0.46354681  0.74988256    -0.78800
O708        O  0.38067572  0.48231045  0.69354435    -0.78700
O709        O  0.38310449  0.51908765  0.80644542    -0.78700
O710        O  0.41339756  0.49880105  0.78839917    -0.78700
O711        O  0.41246479  0.49984699  0.71168947    -0.78700
O712        O  0.38771536  0.55309789  0.77249916    -0.78700
O713        O  0.38314526  0.44775299  0.72769996    -0.78700
Co714      Co  0.39076256  0.52616037  0.72515852     1.51500
Co715      Co  0.38952277  0.47396975  0.77530926     1.51700
Co716      Co  0.35903455  0.47603811  0.72413048     1.51600
Co717      Co  0.36130295  0.52650269  0.77639965     1.51500
O718        O  0.37507735  0.50061365  0.75028211    -1.40600
C719        C  0.41006030  0.55165721  0.76455986     1.10900
C720        C  0.40567032  0.44709847  0.73502468     1.11000
C721        C  0.40344594  0.48887675  0.69295425     1.10900
C722        C  0.40533054  0.51099477  0.80684791     1.10900
O723        O  0.77033276  0.88589559  0.44480265    -0.78700
O724        O  0.72761767  0.88772641  0.55056861    -0.78700
O725        O  0.70976175  0.91377955  0.49724014    -0.78700
O726        O  0.78835078  0.91426710  0.49692728    -0.78700
O727        O  0.69320171  0.88237453  0.51683434    -0.78800
O728        O  0.80489605  0.88220521  0.47830943    -0.78700
O729        O  0.74994674  0.91740188  0.53289266    -0.78700
O730        O  0.74852182  0.91576987  0.46261991    -0.78700
C731        C  0.76272081  0.90840756  0.44542416     1.11000
C732        C  0.73391841  0.91055612  0.54882670     1.10900
C733        C  0.69147878  0.90457928  0.50890294     1.11000
C734        C  0.80615304  0.90493709  0.48451631     1.10900
O735        O  0.78459868  0.83646300  0.49835088    -0.78700
O736        O  0.71415940  0.83597069  0.49924216    -0.78800
O737        O  0.72997845  0.86853327  0.44168352    -0.78700
O738        O  0.76885230  0.87132000  0.55465513    -0.78700
O739        O  0.74989767  0.83955769  0.53769941    -0.78700
O740        O  0.74895733  0.83775300  0.46005033    -0.78700
O741        O  0.80239687  0.86677815  0.51972610    -0.78700
O742        O  0.69684428  0.86528427  0.47625892    -0.78700
Co743      Co  0.77468744  0.86080250  0.47273174     1.51500
Co744      Co  0.72380306  0.86157089  0.52380032     1.51700
Co745      Co  0.72371514  0.89074013  0.47197991     1.51600
Co746      Co  0.77498755  0.89216246  0.52353892     1.51500
O747        O  0.74929342  0.87640740  0.49810292    -1.40600
C748        C  0.80182954  0.84414514  0.51256450     1.10900
C749        C  0.69712184  0.84306027  0.48445163     1.11000
C750        C  0.73754954  0.84607269  0.44118855     1.10900
C751        C  0.76166687  0.84877530  0.55596435     1.10900
O752        O  0.08651823  0.53539470  0.24932259    -0.78700
O753        O  0.08715382  0.46636259  0.25500089    -0.78700
O754        O  0.12030572  0.51431173  0.19355551    -0.78700
O755        O  0.12295333  0.48821871  0.30960213    -0.78700
O756        O  0.08900076  0.49709568  0.21291517    -0.78800
O757        O  0.09049989  0.50418203  0.29120525    -0.78700
O758        O  0.11693521  0.45113548  0.27912821    -0.78700
O759        O  0.11560398  0.55068994  0.22468965    -0.78700
C760        C  0.09321286  0.55064206  0.23257549     1.11000
C761        C  0.09429090  0.45147712  0.27187359     1.10900
C762        C  0.09761921  0.50754802  0.19366232     1.11000
C763        C  0.10019287  0.49456928  0.31039551     1.10900
O764        O  0.13939574  0.52822557  0.30100529    -0.78700
O765        O  0.13739643  0.47418892  0.20149317    -0.78800
O766        O  0.16437339  0.54076856  0.24738364    -0.78700
O767        O  0.16494574  0.46170818  0.25450051    -0.78700
O768        O  0.13268129  0.44316880  0.23846955    -0.78700
O769        O  0.13247881  0.55899624  0.26461150    -0.78700
O770        O  0.16819796  0.50379875  0.28454203    -0.78700
O771        O  0.16696850  0.49848981  0.21662523    -0.78700
Co772      Co  0.11234212  0.52890775  0.27456443     1.51500
Co773      Co  0.11181650  0.47298017  0.22896588     1.51700
Co774      Co  0.14171652  0.52394254  0.22329461     1.51600
Co775      Co  0.14298681  0.47825195  0.27920730     1.51500
O776        O  0.12719495  0.50103159  0.25148730    -1.40600
C777        C  0.16192282  0.52059369  0.29977316     1.10900
C778        C  0.16010220  0.48122003  0.20209614     1.11000
C779        C  0.15493360  0.55992264  0.25739969     1.10900
C780        C  0.15536310  0.44240302  0.24505264     1.10900
C781        C  0.48366706  0.49368075  0.52122574     0.03700
C782        C  0.47664579  0.51411969  0.50556219     0.03700
C783        C  0.49194881  0.52121921  0.48503022     0.03700
C784        C  0.51269879  0.50601825  0.47846057     0.03700
C785        C  0.51970670  0.48554676  0.49391270     0.03700
C786        C  0.50431590  0.47830325  0.51441298     0.03700
C787        C  0.01688959  0.50764805  0.02214148     0.03700
C788        C  0.02413876  0.48720742  0.00652764     0.03700
C789        C  0.00916136  0.48055369  0.98549742     0.03700
C790        C  0.98854781  0.49577916  0.97868448     0.03700
C791        C  0.98121295  0.51585165  0.99430375     0.03700
C792        C  0.99622682  0.52288765  0.01509339     0.03700
C793        C  0.06350658  0.51715540  0.07593251     0.14100
C794        C  0.04850739  0.51207626  0.09690483     0.01100
C795        C  0.02304270  0.50713374  0.09310524     0.16000
C796        C  0.01295578  0.50650599  0.06892557     0.25500
C797        C  0.02801527  0.51087514  0.04781304    -0.40900
C798        C  0.05334390  0.51682089  0.05167638     0.32500
C799        C  0.05948417  0.51144784  0.12262776     0.01100
F800        F  0.00787866  0.50282723  0.11289755    -0.13200
F801        F  0.06838771  0.52179566  0.03197177    -0.13700
C802        C  0.07073867  0.53279680  0.13299088     0.16100
C803        C  0.08227712  0.53181642  0.15654214     0.25500
C804        C  0.08257006  0.50954929  0.17040308    -0.40800
C805        C  0.07061659  0.48839591  0.16044663     0.32400
C806        C  0.05923537  0.48931744  0.13680609     0.14100
F807        F  0.07053743  0.55465671  0.12025617    -0.13200
F808        F  0.07129549  0.46638686  0.17294800    -0.13700
F809        F  0.09322307  0.55266381  0.16583783    -0.16000
F810        F  0.04889546  0.46825102  0.12728874    -0.14500
F811        F  0.08824661  0.52163666  0.07890750    -0.14500
F812        F  0.98845672  0.50080047  0.06606494    -0.16000
C813        C  0.47735607  0.49106517  0.59212626     0.14100
C814        C  0.45159544  0.48763327  0.59564075     0.01100
C815        C  0.43628268  0.48514427  0.57438046     0.16000
C816        C  0.44650268  0.48596166  0.55023587     0.25500
C817        C  0.47217557  0.49045770  0.54670785    -0.40900
C818        C  0.48743610  0.49274470  0.56805206     0.32500
C819        C  0.44069678  0.48701021  0.62137670     0.01100
F820        F  0.41123203  0.48261088  0.57697382    -0.13200
F821        F  0.51225810  0.49706093  0.56559470    -0.13700
C822        C  0.44470485  0.50684941  0.63815212     0.16100
C823        C  0.43362287  0.50679292  0.66187300     0.25500
C824        C  0.41795171  0.48705459  0.66932113    -0.40800
C825        C  0.41447142  0.46691777  0.65284664     0.32400
C826        C  0.42586650  0.46680435  0.62924034     0.14100
F827        F  0.45850695  0.52689025  0.63118406    -0.13200
F828        F  0.40008028  0.44725398  0.65966324    -0.13700
F829        F  0.43710312  0.52681236  0.67700319    -0.16000
F830        F  0.42249362  0.44683807  0.61404838    -0.14500
F831        F  0.49288294  0.49270684  0.61208616    -0.14500
F832        F  0.43120856  0.48242665  0.53037394    -0.16000
C833        C  0.47325863  0.49425864  0.90808372     0.14100
C834        C  0.45431791  0.51172475  0.90326704     0.01100
C835        C  0.44602329  0.52716605  0.92285561     0.16000
C836        C  0.45625182  0.52479524  0.94692040     0.25500
C837        C  0.47480602  0.50692391  0.95167142    -0.40900
C838        C  0.48322237  0.49174795  0.93205016     0.32500
C839        C  0.44210556  0.51216049  0.87830021     0.01100
F840        F  0.42750382  0.54394235  0.91885452    -0.13200
F841        F  0.50146518  0.47465573  0.93611430    -0.13700
C842        C  0.42993845  0.49064139  0.86956877     0.16100
C843        C  0.41885608  0.49024954  0.84594494     0.25500
C844        C  0.41941362  0.51144451  0.83058364    -0.40800
C845        C  0.43129693  0.53315218  0.83929051     0.32400
C846        C  0.44280821  0.53344044  0.86291289     0.14100
F847        F  0.42832216  0.47008557  0.88425812    -0.13200
F848        F  0.43173974  0.55399727  0.82498312    -0.13700
F849        F  0.40682886  0.46930417  0.83834434    -0.16000
F850        F  0.45488977  0.55431558  0.87061990    -0.14500
F851        F  0.48213280  0.47959120  0.88945293    -0.14500
F852        F  0.44786606  0.53962383  0.96562387    -0.16000
C853        C  0.87856228  0.58203003  0.99865009     0.14100
C854        C  0.88104286  0.55761267  0.98944469     0.01100
C855        C  0.85929234  0.54482444  0.98180166     0.16000
C856        C  0.83572134  0.55646250  0.98298093     0.25500
C857        C  0.83355049  0.58123720  0.99133423    -0.40900
C858        C  0.85526323  0.59376434  0.99928673     0.32500
C859        C  0.90634320  0.54576274  0.98846746     0.01100
F860        F  0.86092543  0.52128727  0.97264249    -0.13200
F861        F  0.85387956  0.61736637  0.00836244    -0.13700
C862        C  0.91104708  0.52309449  0.00081560     0.16100
C863        C  0.93527069  0.51327506  0.00184526     0.25500
C864        C  0.95549617  0.52624027  0.99131010    -0.40800
C865        C  0.95084249  0.54849541  0.97834853     0.32400
C866        C  0.92646153  0.55800433  0.97668075     0.14100
F867        F  0.89243298  0.51104602  0.01299227    -0.13200
F868        F  0.96988085  0.56111642  0.96751240    -0.13700
F869        F  0.93930819  0.49166679  0.01441378    -0.16000
F870        F  0.92247657  0.57931838  0.96362737    -0.14500
F871        F  0.89875188  0.59443210  0.00763303    -0.14500
F872        F  0.81520614  0.54385899  0.97515241    -0.16000
C873        C  0.64294895  0.54539485  0.00579325     0.14100
C874        C  0.62047946  0.55880311  0.00848240     0.01100
C875        C  0.62171573  0.58489801  0.01053189     0.16000
C876        C  0.64471578  0.59731198  0.01006108     0.25500
C877        C  0.66728489  0.58401047  0.00717411    -0.40900
C878        C  0.66604494  0.55784288  0.00497300     0.32500
C879        C  0.59570570  0.54587911  0.00811518     0.01100
F880        F  0.60047025  0.59859361  0.01199968    -0.13200
F881        F  0.68717175  0.54421221  0.00208345    -0.13700
C882        C  0.57801989  0.54979836  0.02722398     0.16100
C883        C  0.55430068  0.53864423  0.02605520     0.25500
C884        C  0.54794989  0.52301719  0.00598561    -0.40800
C885        C  0.56570960  0.51883764  0.98712444     0.32400
C886        C  0.58917716  0.53026043  0.98804725     0.14100
F887        F  0.58376972  0.56435927  0.04712559    -0.13200
F888        F  0.56024883  0.50352870  0.96768992    -0.13700
F889        F  0.53749205  0.54325531  0.04438166    -0.16000
F890        F  0.60527086  0.52661071  0.96886378    -0.14500
F891        F  0.64256673  0.52014299  0.00409269    -0.14500
F892        F  0.64466390  0.62258778  0.01145531    -0.16000
C893        C  0.08667751  0.49685983  0.37985347     0.14100
C894        C  0.06104224  0.49126676  0.38101323     0.01100
C895        C  0.04823675  0.48659277  0.35841654     0.16000
C896        C  0.06072001  0.48789174  0.33536640     0.25500
C897        C  0.08641559  0.49309477  0.33444234    -0.40900
C898        C  0.09923879  0.49732972  0.35699428     0.32500
C899        C  0.04784836  0.49120432  0.40570581     0.01100
F900        F  0.02370030  0.48037279  0.35861515    -0.13200
F901        F  0.12393519  0.50295604  0.35691023    -0.13700
C902        C  0.02568583  0.50491494  0.40909892     0.16100
C903        C  0.01421504  0.50607939  0.43255925     0.25500
C904        C  0.02509280  0.49448557  0.45343244    -0.40800
C905        C  0.04703454  0.48063418  0.45020911     0.32400
C906        C  0.05803649  0.47858599  0.42651631     0.14100
F907        F  0.01565800  0.51816530  0.38998477    -0.13200
F908        F  0.05791777  0.46928515  0.47004212    -0.13700
F909        F  0.99292777  0.51953631  0.43519380    -0.16000
F910        F  0.07868374  0.46418485  0.42391879    -0.14500
F911        F  0.09954727  0.50282287  0.40085125    -0.14500
F912        F  0.04782349  0.48342672  0.31401503    -0.16000
C913        C  0.62708337  0.42616740  0.46935928     0.14100
C914        C  0.61924550  0.44143150  0.48924413     0.01100
C915        C  0.63615666  0.44579485  0.50902102     0.16000
C916        C  0.66017321  0.43525065  0.50879217     0.25500
C917        C  0.66758911  0.41939079  0.48922825    -0.40900
C918        C  0.65070314  0.41498420  0.46957199     0.32500
C919        C  0.59362167  0.45277417  0.48922446     0.01100
F920        F  0.62914443  0.45949114  0.52912869    -0.13200
F921        F  0.65728168  0.40010705  0.45017185    -0.13700
C922        C  0.57222939  0.43823563  0.48406310     0.16100
C923        C  0.54832932  0.44901504  0.48390386     0.25500
C924        C  0.54506863  0.47420790  0.49039230    -0.40800
C925        C  0.56638395  0.48878310  0.49524665     0.32400
C926        C  0.59032252  0.47834426  0.49424953     0.14100
F927        F  0.57429177  0.41332275  0.48013457    -0.13200
F928        F  0.56394888  0.51310158  0.50184442    -0.13700
F929        F  0.52826290  0.43458681  0.47843562    -0.16000
F930        F  0.61032059  0.49336860  0.49818953    -0.14500
F931        F  0.61197504  0.42226137  0.44940735    -0.14500
F932        F  0.67567337  0.43956252  0.52837785    -0.16000
C933        C  0.85929272  0.45040821  0.51986544     0.14100
C934        C  0.88120390  0.43825652  0.51176249     0.01100
C935        C  0.87919315  0.41346051  0.50325896     0.16000
C936        C  0.85611474  0.40107213  0.50324289     0.25500
C937        C  0.83419350  0.41340381  0.51083720    -0.40900
C938        C  0.83602458  0.43828473  0.51893275     0.32500
C939        C  0.90594799  0.45146097  0.51149817     0.01100
F940        F  0.89946637  0.40143349  0.49402903    -0.13200
F941        F  0.81532925  0.45070289  0.52651487    -0.13700
C942        C  0.92747448  0.44027085  0.52182296     0.16100
C943        C  0.95085914  0.45202057  0.52023950     0.25500
C944        C  0.95318021  0.47549256  0.50888033    -0.40800
C945        C  0.93173228  0.48695534  0.49906814     0.32400
C946        C  0.90846050  0.47504079  0.50013749     0.14100
F947        F  0.92587040  0.41797011  0.53365938    -0.13200
F948        F  0.93352158  0.50950306  0.48769044    -0.13700
F949        F  0.97124655  0.44037351  0.52966646    -0.16000
F950        F  0.88855428  0.48621812  0.48917634    -0.14500
F951        F  0.86041643  0.47396869  0.52904999    -0.14500
F952        F  0.85505785  0.37726465  0.49467029    -0.16000
C953        C  0.75745219  0.77609268  0.65698104     0.14100
C954        C  0.76447416  0.80120599  0.65394951     0.01100
C955        C  0.77002689  0.81528480  0.67552646     0.16000
C956        C  0.76793651  0.80463210  0.69949344     0.25500
C957        C  0.76015080  0.77971437  0.70237381    -0.40900
C958        C  0.75527039  0.76556236  0.68080539     0.32500
C959        C  0.76453316  0.81279581  0.62842043     0.01100
F960        F  0.77656544  0.83964074  0.67346358    -0.13200
F961        F  0.74744475  0.74158565  0.68289728    -0.13700
C962        C  0.74302742  0.81156949  0.61332427     0.16100
C963        C  0.74266227  0.82225556  0.58943605     0.25500
C964        C  0.76361001  0.83495286  0.58006294    -0.40800
C965        C  0.78516612  0.83632179  0.59509063     0.32400
C966        C  0.78573035  0.82509666  0.61887823     0.14100
F967        F  0.72189265  0.80077465  0.62210650    -0.13200
F968        F  0.80576848  0.84835162  0.58665037    -0.13700
F969        F  0.72120228  0.82140401  0.57599303    -0.16000
F970        F  0.80709201  0.82600530  0.63246767    -0.14500
F971        F  0.75247307  0.76168328  0.63675497    -0.14500
F972        F  0.77305937  0.81877277  0.71985915    -0.16000
C973        C  0.74133891  0.70639182  0.89193366     0.14100
C974        C  0.73856684  0.69294739  0.86942077     0.01100
C975        C  0.73705396  0.66683830  0.87074975     0.16000
C976        C  0.73863735  0.65441456  0.89369571     0.25500
C977        C  0.74190815  0.66764961  0.91630002    -0.40900
C978        C  0.74309557  0.69390787  0.91508147     0.32500
C979        C  0.73891767  0.70564304  0.84440719     0.01100
F980        F  0.73515824  0.65308513  0.84956516    -0.13200
F981        F  0.74583173  0.70755402  0.93623485    -0.13700
C982        C  0.75913208  0.72095211  0.83767315     0.16100
C983        C  0.76061821  0.73140808  0.81373781     0.25500
C984        C  0.74208977  0.72673439  0.79568545    -0.40800
C985        C  0.72183011  0.71139418  0.80226109     0.32400
C986        C  0.72014747  0.70115940  0.82640695     0.14100
F987        F  0.77797390  0.72520076  0.85406213    -0.13200
F988        F  0.70372207  0.70623729  0.78531664    -0.13700
F989        F  0.78024143  0.74638915  0.80816216    -0.16000
F990        F  0.70006542  0.68691372  0.83223971    -0.14500
F991        F  0.74224111  0.73168542  0.89152672    -0.14500
F992        F  0.73800861  0.62911061  0.89348335    -0.16000
C993        C  0.71837646  0.17752488  0.12049921     0.14100
C994        C  0.73851052  0.19188625  0.12933215     0.01100
C995        C  0.75930422  0.19529086  0.11359996     0.16000
C996        C  0.76002444  0.18442127  0.08977173     0.25500
C997        C  0.74026086  0.16935914  0.08134221    -0.40900
C998        C  0.71942115  0.16606218  0.09699361     0.32500
C999        C  0.73809394  0.20295240  0.15498196     0.01100
F1000       F  0.77946792  0.20829548  0.12171362    -0.13200
F1001       F  0.69980509  0.15198786  0.08932434    -0.13700
C1002       C  0.73334435  0.18804698  0.17614840     0.16100
C1003       C  0.73398129  0.19836464  0.20024921     0.25500
C1004       C  0.74021383  0.22358873  0.20376788    -0.40800
C1005       C  0.74456698  0.23851813  0.18261843     0.32400
C1006       C  0.74311890  0.22845234  0.15855079     0.14100
F1007       F  0.72889013  0.16326854  0.17358165    -0.13200
F1008       F  0.75098431  0.26285051  0.18531330    -0.13700
F1009       F  0.72884090  0.18362248  0.22014144    -0.16000
F1010       F  0.74668980  0.24370121  0.13866317    -0.14500
F1011       F  0.69754422  0.17471383  0.13457992    -0.14500
F1012       F  0.78072707  0.18744923  0.07554611    -0.16000
C1013       C  0.78014828  0.30388521  0.32550482     0.14100
C1014       C  0.76442147  0.29642357  0.34523749     0.01100
C1015       C  0.74659610  0.27773159  0.34066858     0.16000
C1016       C  0.74407779  0.26724893  0.31685614     0.25500
C1017       C  0.75944008  0.27500664  0.29708259    -0.40900
C1018       C  0.77767520  0.29325305  0.30164124     0.32500
C1019       C  0.76484664  0.30961355  0.36981621     0.01100
F1020       F  0.73093458  0.27024686  0.35907673    -0.13200
F1021       F  0.79279815  0.30101094  0.28292031    -0.13700
C1022       C  0.76061432  0.33544618  0.37070465     0.16100
C1023       C  0.75882265  0.34790582  0.39356801     0.25500
C1024       C  0.76095997  0.33487319  0.41628529    -0.40800
C1025       C  0.76540557  0.30900285  0.41551805     0.32400
C1026       C  0.76757830  0.29653235  0.39249619     0.14100
F1027       F  0.75711751  0.34856077  0.34932614    -0.13200
F1028       F  0.76831992  0.29593888  0.43701359    -0.13700
F1029       F  0.75379020  0.37268600  0.39340802    -0.16000
F1030       F  0.77253933  0.27171289  0.39234097    -0.14500
F1031       F  0.79784742  0.32157099  0.32934788    -0.14500
F1032       F  0.72654044  0.24938784  0.31302922    -0.16000
C1033       C  0.70068682  0.45488837  0.40711695     0.14100
C1034       C  0.71571665  0.45342406  0.38571432     0.01100
C1035       C  0.73945728  0.44258923  0.38737658     0.16000
C1036       C  0.74690835  0.43097508  0.40953149     0.25500
C1037       C  0.73058243  0.42995485  0.42998496    -0.40900
C1038       C  0.70815256  0.44326433  0.42916829     0.32500
C1039       C  0.70452860  0.45895300  0.36122994     0.01100
F1040       F  0.75444528  0.44142017  0.36703327    -0.13200
F1041       F  0.69308690  0.44427639  0.44933541    -0.13700
C1042       C  0.71178128  0.47968640  0.34703443     0.16100
C1043       C  0.69820466  0.48625891  0.32561886     0.25500
C1044       C  0.67727425  0.47204144  0.31831489    -0.40800
C1045       C  0.67165328  0.45005470  0.33151184     0.32400
C1046       C  0.68510062  0.44367055  0.35274938     0.14100
F1047       F  0.73109306  0.49420615  0.35461502    -0.13200
F1048       F  0.65266311  0.43494097  0.32424269    -0.13700
F1049       F  0.70462124  0.50725267  0.31303400    -0.16000
F1050       F  0.67859804  0.42287927  0.36565719    -0.14500
F1051       F  0.67798838  0.46607855  0.40606054    -0.14500
F1052       F  0.76930406  0.41921208  0.41048461    -0.16000
C1053       C  0.68088719  0.51536313  0.13231845     0.14100
C1054       C  0.69668331  0.53611831  0.13303678     0.01100
C1055       C  0.70199671  0.54770430  0.15595919     0.16000
C1056       C  0.69083841  0.53906018  0.17789700     0.25500
C1057       C  0.67388112  0.51919623  0.17690672    -0.40900
C1058       C  0.66936694  0.50707701  0.15409417     0.32500
C1059       C  0.70449205  0.54782973  0.10955153     0.01100
F1060       F  0.71687157  0.56817266  0.15681410    -0.13200
F1061       F  0.65273697  0.48805025  0.15267905    -0.13700
C1062       C  0.68980419  0.56692002  0.09949425     0.16100
C1063       C  0.69728568  0.57915255  0.07787345     0.25500
C1064       C  0.71999149  0.57289010  0.06624424    -0.40800
C1065       C  0.73401493  0.55272350  0.07560155     0.32400
C1066       C  0.72618666  0.54019040  0.09714116     0.14100
F1067       F  0.66849374  0.57416456  0.11108405    -0.13200
F1068       F  0.75598908  0.54615315  0.06492022    -0.13700
F1069       F  0.68267297  0.59775671  0.06880464    -0.16000
F1070       F  0.74018504  0.52124713  0.10641486    -0.14500
F1071       F  0.67539056  0.50419936  0.11024972    -0.14500
F1072       F  0.69556341  0.55084653  0.19976538    -0.16000
C1073       C  0.52390974  0.48691293  0.08958238     0.14100
C1074       C  0.54974878  0.48328743  0.09242504     0.01100
C1075       C  0.56427889  0.48009901  0.07069398     0.16000
C1076       C  0.55323912  0.48108997  0.04684658     0.25500
C1077       C  0.52767307  0.48657238  0.04411139    -0.40900
C1078       C  0.51318862  0.48920523  0.06586155     0.32500
C1079       C  0.56129664  0.48389184  0.11797866     0.01100
F1080       F  0.58933212  0.47692492  0.07243233    -0.13200
F1081       F  0.48858220  0.49486151  0.06419377    -0.13700
C1082       C  0.57760360  0.46496568  0.12614397     0.16100
C1083       C  0.58839723  0.46595038  0.15003678     0.25500
C1084       C  0.58277257  0.48559553  0.16662988    -0.40800
C1085       C  0.56621358  0.50428658  0.15862864     0.32400
C1086       C  0.55587115  0.50360851  0.13456532     0.14100
F1087       F  0.58293060  0.44530064  0.11112111    -0.13200
F1088       F  0.56105717  0.52403780  0.17359499    -0.13700
F1089       F  0.60431325  0.44752186  0.15701027    -0.16000
F1090       F  0.54122026  0.52287193  0.12713470    -0.14500
F1091       F  0.50891819  0.48844269  0.10991451    -0.14500
F1092       F  0.56764071  0.47702486  0.02646452    -0.16000
C1093       C  0.58605396  0.51160583  0.37914909     0.14100
C1094       C  0.55989892  0.51165780  0.38058167     0.01100
C1095       C  0.54607829  0.51055720  0.35821064     0.16000
C1096       C  0.55817905  0.50920461  0.33495464     0.25500
C1097       C  0.58442512  0.50907503  0.33350979    -0.40900
C1098       C  0.59816198  0.51034450  0.35600012     0.32500
C1099       C  0.54723499  0.51120765  0.40544718     0.01100
F1100       F  0.52077443  0.51089219  0.35889077    -0.13200
F1101       F  0.62346375  0.50936573  0.35576574    -0.13700
C1102       C  0.55128897  0.53014592  0.42329787     0.16100
C1103       C  0.54022559  0.52878464  0.44707493     0.25500
C1104       C  0.52484013  0.50849099  0.45339045    -0.40800
C1105       C  0.52076578  0.48971007  0.43549198     0.32400
C1106       C  0.53181297  0.49102446  0.41187931     0.14100
F1107       F  0.56583555  0.55005504  0.41762196    -0.13200
F1108       F  0.50581830  0.47001822  0.44091926    -0.13700
F1109       F  0.54465858  0.54714782  0.46393065    -0.16000
F1110       F  0.52794093  0.47214472  0.39545431    -0.14500
F1111       F  0.59997513  0.51175999  0.40032717    -0.14500
F1112       F  0.54418615  0.50834815  0.31385518    -0.16000
C1113       C  0.66740013  0.37139363  0.24811269     0.14100
C1114       C  0.68932568  0.36808057  0.26211178     0.01100
C1115       C  0.69969794  0.38884553  0.27447963     0.16000
C1116       C  0.68814723  0.41237062  0.27305433     0.25500
C1117       C  0.66570954  0.41536372  0.25977975    -0.40900
C1118       C  0.65563504  0.39468896  0.24713262     0.32500
C1119       C  0.70165462  0.34314083  0.26286272     0.01100
F1120       F  0.72080861  0.38623799  0.28823816    -0.13200
F1121       F  0.63472899  0.39725343  0.23306909    -0.13700
C1122       C  0.72563593  0.33995810  0.25281969     0.16100
C1123       C  0.73647949  0.31622129  0.25164213     0.25500
C1124       C  0.72363699  0.29513249  0.26049397    -0.40800
C1125       C  0.69987603  0.29827685  0.27103159     0.32400
C1126       C  0.68896183  0.32208932  0.27218708     0.14100
F1127       F  0.73811490  0.35970405  0.24308787    -0.13200
F1128       F  0.68715796  0.27828344  0.27986962    -0.13700
F1129       F  0.75920300  0.31360300  0.24081354    -0.16000
F1130       F  0.66591846  0.32463333  0.28231367    -0.14500
F1131       F  0.65771327  0.35214263  0.23480040    -0.14500
F1132       F  0.69867788  0.43204812  0.28494264    -0.16000
C1133       C  0.73584348  0.81123286  0.32212862     0.14100
C1134       C  0.73918578  0.79671724  0.34386089     0.01100
C1135       C  0.74376068  0.77100607  0.34094645     0.16000
C1136       C  0.74559985  0.76030884  0.31712352     0.25500
C1137       C  0.74209641  0.77475670  0.29544262    -0.40900
C1138       C  0.73659157  0.80027126  0.29828424     0.32500
C1139       C  0.73801764  0.80831644  0.36941664     0.01100
F1140       F  0.74631603  0.75606351  0.36122088    -0.13200
F1141       F  0.73232908  0.81473589  0.27796587    -0.13700
C1142       C  0.71790137  0.82377940  0.37632787     0.16100
C1143       C  0.71731204  0.83545296  0.39983836     0.25500
C1144       C  0.73647230  0.83144898  0.41741264    -0.40800
C1145       C  0.75618182  0.81534833  0.41081685     0.32400
C1146       C  0.75710230  0.80420327  0.38709058     0.14100
F1147       F  0.69861344  0.82748660  0.36032800    -0.13200
F1148       F  0.77543910  0.81147598  0.42682422    -0.13700
F1149       F  0.69790649  0.85071251  0.40540624    -0.16000
F1150       F  0.77732530  0.79022407  0.38105964    -0.14500
F1151       F  0.73262496  0.83626677  0.32389575    -0.14500
F1152       F  0.75135888  0.73572992  0.31521689    -0.16000
C1153       C  0.74388077  0.71360601  0.16136944     0.14100
C1154       C  0.76458226  0.69885144  0.15503021     0.01100
C1155       C  0.78327840  0.69487087  0.17315552     0.16000
C1156       C  0.78123389  0.70550591  0.19706913     0.25500
C1157       C  0.76058056  0.72053506  0.20317021    -0.40900
C1158       C  0.74201000  0.72442315  0.18502313     0.32500
C1159       C  0.76576065  0.68682034  0.12991875     0.01100
F1160       F  0.80364390  0.68090036  0.16760762    -0.13200
F1161       F  0.72202150  0.73905632  0.19020041    -0.13700
C1162       C  0.76329570  0.70103043  0.10792000     0.16100
C1163       C  0.76161231  0.68937653  0.08447845     0.25500
C1164       C  0.76266935  0.66322877  0.08248177    -0.40800
C1165       C  0.76602581  0.64913883  0.10455456     0.32400
C1166       C  0.76740998  0.66078366  0.12788247     0.14100
F1167       F  0.76230931  0.72628694  0.10917040    -0.13200
F1168       F  0.76683910  0.62383517  0.10387877    -0.13700
F1169       F  0.75880249  0.70370356  0.06380483    -0.16000
F1170       F  0.76908431  0.64640646  0.14866405    -0.14500
F1171       F  0.72506401  0.71710771  0.14476730    -0.14500
F1172       F  0.79939410  0.70116232  0.21418195    -0.16000
C1173       C  0.72790429  0.65569168  0.23941236     0.14100
C1174       C  0.70213277  0.65325760  0.23470199     0.01100
C1175       C  0.68814628  0.67532130  0.23102724     0.16000
C1176       C  0.69952309  0.69894382  0.23267335     0.25500
C1177       C  0.72482603  0.70121773  0.23932872    -0.40900
C1178       C  0.73888944  0.67924028  0.24235619     0.32500
C1179       C  0.68997869  0.62788537  0.23487349     0.01100
F1180       F  0.66323210  0.67419366  0.22672211    -0.13200
F1181       F  0.76335874  0.68054669  0.24875097    -0.13700
C1182       C  0.69532420  0.61071560  0.25414004     0.16100
C1183       C  0.68416095  0.58705763  0.25466809     0.25500
C1184       C  0.66636243  0.58017148  0.23665547    -0.40800
C1185       C  0.66084775  0.59723014  0.21739570     0.32400
C1186       C  0.67284633  0.62055044  0.21623087     0.14100
F1187       F  0.71063951  0.61716738  0.27325716    -0.13200
F1188       F  0.64397978  0.59122673  0.19945362    -0.13700
F1189       F  0.68988123  0.57135646  0.27368947    -0.16000
F1190       F  0.66785487  0.63578443  0.19663673    -0.14500
F1191       F  0.74262520  0.63516800  0.24120529    -0.14500
F1192       F  0.68569592  0.71961973  0.22805872    -0.16000
C1193       C  0.19670713  0.04209532  0.58939820     0.14100
C1194       C  0.21026324  0.04524536  0.61161611     0.01100
C1195       C  0.23407410  0.05595547  0.61097224     0.16000
C1196       C  0.24305985  0.06588539  0.58873447     0.25500
C1197       C  0.22808502  0.06559996  0.56727916    -0.40900
C1198       C  0.20577588  0.05208238  0.56719076     0.32500
C1199       C  0.19841499  0.03995601  0.63562731     0.01100
F1200       F  0.24756237  0.05877397  0.63223639    -0.13200
F1201       F  0.19241267  0.04937693  0.54595070    -0.13700
C1202       C  0.20768175  0.02120263  0.65125494     0.16100
C1203       C  0.19516045  0.01525725  0.67325906     0.25500
C1204       C  0.17309234  0.02796906  0.67966445    -0.40800
C1205       C  0.16509217  0.04814821  0.66485451     0.32400
C1206       C  0.17760119  0.05396217  0.64292327     0.14100
F1207       F  0.22811209  0.00786634  0.64454987    -0.13200
F1208       F  0.14470739  0.06181356  0.67114228    -0.13700
F1209       F  0.20384718  0.99615939  0.68741816    -0.16000
F1210       F  0.16912945  0.07299655  0.62849763    -0.14500
F1211       F  0.17410637  0.03066295  0.58957940    -0.14500
F1212       F  0.26556187  0.07744924  0.58852238    -0.16000
C1213       C  0.55475918  0.35249449  0.18019479     0.14100
C1214       C  0.54081924  0.36037683  0.20078488     0.01100
C1215       C  0.52069792  0.34587654  0.20909835     0.16000
C1216       C  0.51341872  0.32461461  0.19565713     0.25500
C1217       C  0.52642079  0.31763870  0.17389883    -0.40900
C1218       C  0.54783435  0.33126307  0.16701143     0.32500
C1219       C  0.54773531  0.38399036  0.21295724     0.01100
F1220       F  0.50758002  0.35286943  0.22956941    -0.13200
F1221       F  0.56179517  0.32450943  0.14699535    -0.13700
C1222       C  0.54422111  0.40661830  0.20017797     0.16100
C1223       C  0.55629435  0.42825162  0.20830147     0.25500
C1224       C  0.57231064  0.42727254  0.22893908    -0.40800
C1225       C  0.57412906  0.40518100  0.24289705     0.32400
C1226       C  0.56180699  0.38363437  0.23499072     0.14100
F1227       F  0.53031146  0.40733668  0.17900375    -0.13200
F1228       F  0.58899448  0.40413646  0.26338779    -0.13700
F1229       F  0.55320255  0.44976012  0.19542628    -0.16000
F1230       F  0.56516980  0.36200373  0.24769395    -0.14500
F1231       F  0.57491804  0.36577520  0.17254019    -0.14500
F1232       F  0.49298656  0.31173724  0.20318194    -0.16000
C1233       C  0.66074850  0.20705470  0.04765418     0.14100
C1234       C  0.63864146  0.20449755  0.03376584     0.01100
C1235       C  0.63909102  0.19191632  0.01086126     0.16000
C1236       C  0.66093563  0.18002150  0.00314679     0.25500
C1237       C  0.68204189  0.17992732  0.01868835    -0.40900
C1238       C  0.68236604  0.19478399  0.04011187     0.32500
C1239       C  0.61476691  0.21063365  0.04565361     0.01100
F1240       F  0.61795040  0.18937941  0.99712592    -0.13200
F1241       F  0.70327829  0.19682331  0.05408266    -0.13700
C1242       C  0.59941241  0.22995654  0.03695695     0.16100
C1243       C  0.57789525  0.23655019  0.05028321     0.25500
C1244       C  0.57185573  0.22400117  0.07259919    -0.40800
C1245       C  0.58720503  0.20418477  0.08061897     0.32400
C1246       C  0.60801758  0.19730500  0.06700297     0.14100
F1247       F  0.60588292  0.24309426  0.01632522    -0.13200
F1248       F  0.58303090  0.19212316  0.10245160    -0.13700
F1249       F  0.56398483  0.25609489  0.04220027    -0.16000
F1250       F  0.62223982  0.17799984  0.07521963    -0.14500
F1251       F  0.66079038  0.21989057  0.06949571    -0.14500
F1252       F  0.66118621  0.16760090  0.98110961    -0.16000
C1253       C  0.50600395  0.40831324  0.02934145     0.14100
C1254       C  0.48552718  0.40246103  0.04459024     0.01100
C1255       C  0.46762245  0.42110301  0.04934124     0.16000
C1256       C  0.47024512  0.44509761  0.03913402     0.25500
C1257       C  0.49079827  0.45090510  0.02385941    -0.40900
C1258       C  0.50858506  0.43220419  0.01910853     0.32500
C1259       C  0.48408069  0.37757740  0.05700722     0.01100
F1260       F  0.44761779  0.41608112  0.06399734    -0.13200
F1261       F  0.52867085  0.43718250  0.00454955    -0.13700
C1262       C  0.48439020  0.37606619  0.08313986     0.16100
C1263       C  0.48531011  0.35291966  0.09513533     0.25500
C1264       C  0.48616191  0.33049617  0.08131168    -0.40800
C1265       C  0.48518758  0.33194676  0.05509562     0.32400
C1266       C  0.48409424  0.35526982  0.04307277     0.14100
F1267       F  0.48505267  0.39714989  0.09715875    -0.13200
F1268       F  0.48516838  0.31084508  0.04111587    -0.13700
F1269       F  0.48664203  0.35264282  0.12043285    -0.16000
F1270       F  0.48312173  0.35610600  0.01778364    -0.14500
F1271       F  0.52402999  0.39107773  0.02503111    -0.14500
F1272       F  0.45304987  0.46274823  0.04476854    -0.16000
C1273       C  0.67282972  0.27804204  0.19733073     0.14100
C1274       C  0.65442796  0.26005052  0.20278217     0.01100
C1275       C  0.66031328  0.24102305  0.21987925     0.16000
C1276       C  0.68406891  0.23977121  0.23088381     0.25500
C1277       C  0.70257964  0.25747126  0.22512789    -0.40900
C1278       C  0.69660472  0.27683622  0.20845412     0.32500
C1279       C  0.62957310  0.26050015  0.18987862     0.01100
F1280       F  0.64326787  0.22314932  0.22538874    -0.13200
F1281       F  0.71383754  0.29440837  0.20266742    -0.13700
C1282       C  0.62825651  0.25897758  0.16373136     0.16100
C1283       C  0.60516106  0.25896140  0.15139160     0.25500
C1284       C  0.58255513  0.26013822  0.16485791    -0.40800
C1285       C  0.58382314  0.26153668  0.19107243     0.32400
C1286       C  0.60707080  0.26182947  0.20342773     0.14100
F1287       F  0.64943158  0.25657834  0.15007615    -0.13200
F1288       F  0.56258656  0.26299260  0.20473482    -0.13700
F1289       F  0.60499681  0.25670419  0.12615703    -0.16000
F1290       F  0.60761863  0.26367904  0.22867083    -0.14500
F1291       F  0.66770652  0.29690157  0.18124852    -0.14500
F1292       F  0.68908298  0.22115652  0.24730096    -0.16000
C1293       C  0.57844840  0.04872054  0.97070856     0.14100
C1294       C  0.59651813  0.04553838  0.98960778     0.01100
C1295       C  0.59040528  0.03070433  0.01035077     0.16000
C1296       C  0.56691043  0.01932952  0.01215818     0.25500
C1297       C  0.54884096  0.02246001  0.99331386    -0.40900
C1298       C  0.55485995  0.03733103  0.97253966     0.32500
C1299       C  0.62116480  0.05870193  0.98844525     0.01100
F1300       F  0.60697887  0.02779108  0.02929364    -0.13200
F1301       F  0.53783971  0.04109977  0.95417235    -0.13700
C1302       C  0.62202761  0.08484595  0.98738285     0.16100
C1303       C  0.64489324  0.09753434  0.98759035     0.25500
C1304       C  0.66774217  0.08453525  0.98896243    -0.40800
C1305       C  0.66690848  0.05824210  0.98974850     0.32400
C1306       C  0.64389262  0.04550058  0.98946843     0.14100
F1307       F  0.60056617  0.09827899  0.98724058    -0.13200
F1308       F  0.68834627  0.04481496  0.99067560    -0.13700
F1309       F  0.64444914  0.12275776  0.98768784    -0.16000
F1310       F  0.64380030  0.02019961  0.99010835    -0.14500
F1311       F  0.58370545  0.06283228  0.95037642    -0.14500
F1312       F  0.56173712  0.00511223  0.03245412    -0.16000
C1313       C  0.51710289  0.07077330  0.06283354     0.14100
C1314       C  0.51341952  0.09183165  0.04745784     0.01100
C1315       C  0.50900739  0.08795073  0.02186357     0.16000
C1316       C  0.50727898  0.06376874  0.01210759     0.25500
C1317       C  0.51090722  0.04274066  0.02742481    -0.40900
C1318       C  0.51633725  0.04654441  0.05282958     0.32500
C1319       C  0.51364210  0.11772447  0.05805203     0.01100
F1320       F  0.50647676  0.10765215  0.00616930    -0.13200
F1321       F  0.52082965  0.02682839  0.06802179    -0.13700
C1322       C  0.53346216  0.12596073  0.07318693     0.16100
C1323       C  0.53292870  0.14969967  0.08419708     0.25500
C1324       C  0.51318388  0.16641073  0.07942436    -0.40800
C1325       C  0.49366838  0.15842062  0.06372856     0.32400
C1326       C  0.49372301  0.13429247  0.05348563     0.14100
F1327       F  0.55343889  0.11098155  0.07740902    -0.13200
F1328       F  0.47359823  0.17331149  0.05967174    -0.13700
F1329       F  0.55159616  0.15606240  0.09999824    -0.16000
F1330       F  0.47364368  0.12671608  0.04002340    -0.14500
F1331       F  0.52077903  0.07357876  0.08773120    -0.14500
F1332       F  0.50150603  0.06087116  0.98761526    -0.16000
C1333       C  0.67964669  0.01324858  0.87052880     0.14100
C1334       C  0.69880869  0.03091916  0.86957057     0.01100
C1335       C  0.70677293  0.04027844  0.84642140     0.16000
C1336       C  0.69463785  0.03299841  0.82446566     0.25500
C1337       C  0.67425646  0.01669986  0.82571022    -0.40900
C1338       C  0.66737189  0.00622597  0.84872158     0.32500
C1339       C  0.70659744  0.04337061  0.89264875     0.01100
F1340       F  0.72493027  0.05788646  0.84537434    -0.13200
F1341       F  0.64789626  0.99013643  0.85023360    -0.13700
C1342       C  0.72866175  0.03680446  0.90505557     0.16100
C1343       C  0.73670651  0.05075752  0.92564175     0.25500
C1344       C  0.72277010  0.07153666  0.93368538    -0.40800
C1345       C  0.69979467  0.07683442  0.92208268     0.32400
C1346       C  0.69185977  0.06288768  0.90172767     0.14100
F1347       F  0.74273211  0.01749983  0.89671331    -0.13200
F1348       F  0.68539616  0.09619155  0.92977969    -0.13700
F1349       F  0.75878738  0.04491836  0.93659223    -0.16000
F1350       F  0.67022433  0.06912737  0.89009013    -0.14500
F1351       F  0.67165639  0.00425354  0.89280354    -0.14500
F1352       F  0.70150858  0.04322944  0.80237418    -0.16000
C1353       C  0.72942330  0.95588661  0.60256408     0.14100
C1354       C  0.70440618  0.95231405  0.60968264     0.01100
C1355       C  0.68852117  0.93866322  0.59397474     0.16000
C1356       C  0.69807103  0.92588654  0.57361740     0.25500
C1357       C  0.72331742  0.92816879  0.56707248    -0.40900
C1358       C  0.73871586  0.94425245  0.58100438     0.32500
C1359       C  0.69497424  0.96022661  0.63441885     0.01100
F1360       F  0.66388021  0.93629224  0.59934049    -0.13200
F1361       F  0.76323042  0.94672980  0.57522428    -0.13700
C1362       C  0.69617423  0.98521810  0.64222158     0.16100
C1363       C  0.68435279  0.99264474  0.66430720     0.25500
C1364       C  0.67061143  0.97532046  0.67838566    -0.40800
C1365       C  0.66983640  0.95032370  0.67077786     0.32400
C1366       C  0.68261881  0.94268919  0.64954541     0.14100
F1367       F  0.70731687  0.00267808  0.62770525    -0.13200
F1368       F  0.65588287  0.93339342  0.68331339    -0.13700
F1369       F  0.68447377  0.01712564  0.67075012    -0.16000
F1370       F  0.68204863  0.91817672  0.64315741    -0.14500
F1371       F  0.74523991  0.96902360  0.61735755    -0.14500
F1372       F  0.68282795  0.90985525  0.56144804    -0.16000
C1373       C  0.70219210  0.89312432  0.73768027     0.14100
C1374       C  0.68851838  0.87134770  0.73222795     0.01100
C1375       C  0.66285670  0.87339847  0.72755007     0.16000
C1376       C  0.65089821  0.89649620  0.72921063     0.25500
C1377       C  0.66432109  0.91827279  0.73569831    -0.40900
C1378       C  0.69022399  0.91631450  0.73955109     0.32500
C1379       C  0.70041578  0.84631736  0.73398178     0.01100
F1380       F  0.64898027  0.85276053  0.72276606    -0.13200
F1381       F  0.70396593  0.93670604  0.74557291    -0.13700
C1382       C  0.71252994  0.83937980  0.75615306     0.16100
C1383       C  0.72362963  0.81596751  0.75843507     0.25500
C1384       C  0.72209829  0.79839611  0.73900706    -0.40800
C1385       C  0.70916471  0.80491255  0.71704890     0.32400
C1386       C  0.69882426  0.82884997  0.71438085     0.14100
F1387       F  0.71321069  0.85518930  0.77592780    -0.13200
F1388       F  0.70646030  0.78817967  0.69825314    -0.13700
F1389       F  0.73621161  0.81051500  0.77972507    -0.16000
F1390       F  0.68749206  0.83505197  0.69258305    -0.14500
F1391       F  0.72716295  0.89182936  0.74169072    -0.14500
F1392       F  0.62584218  0.89715359  0.72556125    -0.16000
C1393       C  0.52187614  0.98825659  0.91045248     0.14100
C1394       C  0.54707651  0.98238294  0.90625502     0.01100
C1395       C  0.56250271  0.97742945  0.92700766     0.16000
C1396       C  0.55306779  0.97901901  0.95143126     0.25500
C1397       C  0.52809270  0.98585557  0.95554998    -0.40900
C1398       C  0.51257389  0.99014462  0.93476541     0.32500
C1399       C  0.55754026  0.98298923  0.88042414     0.01100
F1400       F  0.58695811  0.97187497  0.92364840    -0.13200
F1401       F  0.48838289  0.99683951  0.93808042    -0.13700
C1402       C  0.55588186  0.00489171  0.86604766     0.16100
C1403       C  0.56705087  0.00627369  0.84244354     0.25500
C1404       C  0.58033187  0.98581818  0.83270030    -0.40800
C1405       C  0.58135974  0.96365997  0.84671128     0.32400
C1406       C  0.56993750  0.96219154  0.87025845     0.14100
F1407       F  0.54441482  0.02544641  0.87538583    -0.13200
F1408       F  0.59345476  0.94339547  0.83756974    -0.13700
F1409       F  0.56620465  0.02819507  0.82981435    -0.16000
F1410       F  0.57098018  0.94044789  0.88315719    -0.14500
F1411       F  0.50622816  0.99231020  0.89093583    -0.14500
F1412       F  0.56837437  0.97417417  0.97100925    -0.16000
C1413       C  0.55839775  0.65072209  0.31245443     0.14100
C1414       C  0.54112496  0.63576655  0.29963339     0.01100
C1415       C  0.51621179  0.64356037  0.29760990     0.16000
C1416       C  0.50841542  0.66537737  0.30963826     0.25500
C1417       C  0.52539843  0.67914111  0.32417235    -0.40900
C1418       C  0.55047361  0.67181969  0.32518243     0.32500
C1419       C  0.54906784  0.61092935  0.29106209     0.01100
F1420       F  0.49917501  0.62917460  0.28560013    -0.13200
F1421       F  0.56710089  0.68427201  0.33960447    -0.13700
C1422       C  0.55977019  0.59453256  0.30843265     0.16100
C1423       C  0.57246165  0.57346225  0.30036110     0.25500
C1424       C  0.57327225  0.56745835  0.27491160    -0.40800
C1425       C  0.56071463  0.58272622  0.25762738     0.32400
C1426       C  0.54890664  0.60459630  0.26565798     0.14100
F1427       F  0.55934790  0.59987994  0.33320549    -0.13200
F1428       F  0.56208589  0.57785313  0.23281310    -0.13700
F1429       F  0.58531307  0.55990230  0.31734640    -0.16000
F1430       F  0.53909160  0.62047518  0.24854751    -0.14500
F1431       F  0.58279215  0.64401811  0.31383977    -0.14500
F1432       F  0.48390221  0.67170939  0.30906702    -0.16000
C1433       C  0.59002932  0.78230089  0.46383790     0.14100
C1434       C  0.61360067  0.78533587  0.45284105     0.01100
C1435       C  0.61677808  0.78074492  0.42738309     0.16000
C1436       C  0.59648942  0.77421690  0.41274034     0.25500
C1437       C  0.57269657  0.77134879  0.42347406    -0.40900
C1438       C  0.56966835  0.77484908  0.44925656     0.32500
C1439       C  0.63353937  0.79871230  0.46578673     0.01100
F1440       F  0.63924054  0.78456686  0.41631944    -0.13200
F1441       F  0.54683636  0.77265359  0.45993410    -0.13700
C1442       C  0.65608617  0.78685537  0.47190485     0.16100
C1443       C  0.67690089  0.80106341  0.47883024     0.25500
C1444       C  0.67540624  0.82723468  0.47880953    -0.40800
C1445       C  0.65248771  0.83881982  0.47296091     0.32400
C1446       C  0.63176108  0.82465958  0.46687120     0.14100
F1447       F  0.65817727  0.76171277  0.46995192    -0.13200
F1448       F  0.65012365  0.86401274  0.47229788    -0.13700
F1449       F  0.69874910  0.78938098  0.48402779    -0.16000
F1450       F  0.61037026  0.83642046  0.46001753    -0.14500
F1451       F  0.58657939  0.78779965  0.48830338    -0.14500
F1452       F  0.60011121  0.77144544  0.38784158    -0.16000
C1453       C  0.50336948  0.63691758  0.44449132     0.14100
C1454       C  0.48330157  0.62056085  0.43976633     0.01100
C1455       C  0.46398304  0.62893363  0.42396592     0.16000
C1456       C  0.46510834  0.65267450  0.41271461     0.25500
C1457       C  0.48539497  0.66884123  0.41720673    -0.40900
C1458       C  0.50431737  0.66072188  0.43355178     0.32500
C1459       C  0.48303350  0.59489322  0.45121867     0.01100
F1460       F  0.44388860  0.61419573  0.41949203    -0.13200
F1461       F  0.52462564  0.67522533  0.43782098    -0.13700
C1462       C  0.48681935  0.59190969  0.47703404     0.16100
C1463       C  0.48983132  0.56814392  0.48755205     0.25500
C1464       C  0.48787330  0.54639497  0.47289265    -0.40800
C1465       C  0.48237895  0.54923728  0.44729788     0.32400
C1466       C  0.48052062  0.57317673  0.43650400     0.14100
F1467       F  0.48777273  0.61216700  0.49219898    -0.13200
F1468       F  0.47902531  0.52889356  0.43263377    -0.13700
F1469       F  0.49538112  0.56642913  0.51219098    -0.16000
F1470       F  0.47711507  0.57507951  0.41148718    -0.14500
F1471       F  0.52278742  0.62940320  0.45892334    -0.14500
F1472       F  0.44628904  0.65987461  0.39735538    -0.16000
C1473       C  0.60918365  0.74018385  0.29509601     0.14100
C1474       C  0.63101348  0.73482035  0.30889174     0.01100
C1475       C  0.62841218  0.72949459  0.33444789     0.16000
C1476       C  0.60489768  0.72975770  0.34591659     0.25500
C1477       C  0.58312362  0.73639325  0.33247503    -0.40900
C1478       C  0.58565174  0.74130407  0.30676662     0.32500
C1479       C  0.65647070  0.73588482  0.29705249     0.01100
F1480       F  0.64883668  0.72501332  0.34876334    -0.13200
F1481       F  0.56535619  0.74712854  0.29279045    -0.13700
C1482       C  0.66361525  0.75681388  0.28287622     0.16100
C1483       C  0.68737573  0.75826641  0.27213317     0.25500
C1484       C  0.70509944  0.73927652  0.27580631    -0.40800
C1485       C  0.69828103  0.71841239  0.29019106     0.32400
C1486       C  0.67414222  0.71656794  0.30039568     0.14100
F1487       F  0.64776428  0.77630041  0.27981692    -0.13200
F1488       F  0.71492411  0.69978952  0.29431267    -0.13700
F1489       F  0.69305127  0.77826805  0.25769657    -0.16000
F1490       F  0.66794714  0.69565296  0.31321143    -0.14500
F1491       F  0.61058188  0.74427808  0.27015318    -0.14500
F1492       F  0.60375595  0.72409109  0.37056406    -0.16000
C1493       C  0.62167370  0.91563626  0.51538968     0.14100
C1494       C  0.61954157  0.94151111  0.51194529     0.01100
C1495       C  0.64151099  0.95550379  0.50818996     0.16000
C1496       C  0.66494653  0.94374819  0.50727803     0.25500
C1497       C  0.66702588  0.91782884  0.51085801    -0.40900
C1498       C  0.64503159  0.90408418  0.51556304     0.32500
C1499       C  0.59436994  0.95355098  0.51176698     0.01100
F1500       F  0.64033874  0.98065098  0.50564062    -0.13200
F1501       F  0.64586224  0.87915373  0.51985148    -0.13700
C1502       C  0.57699574  0.94886813  0.53098412     0.16100
C1503       C  0.55283170  0.95890582  0.52992971     0.25500
C1504       C  0.54575087  0.97433824  0.50997612    -0.40800
C1505       C  0.56322999  0.97949678  0.49113600     0.32400
C1506       C  0.58711024  0.96898654  0.49181274     0.14100
F1507       F  0.58344571  0.93459900  0.55088171    -0.13200
F1508       F  0.55702605  0.99472578  0.47187270    -0.13700
F1509       F  0.53628869  0.95321606  0.54817982    -0.16000
F1510       F  0.60285472  0.97329619  0.47248211    -0.14500
F1511       F  0.60098514  0.90123219  0.51778742    -0.14500
F1512       F  0.68559432  0.95781488  0.50328641    -0.16000
C1513       C  0.37585002  0.08432292  0.49700744     0.14100
C1514       C  0.37831523  0.05944939  0.48894343     0.01100
C1515       C  0.35661829  0.04677748  0.48095963     0.16000
C1516       C  0.33319261  0.05870933  0.48109654     0.25500
C1517       C  0.33101863  0.08384637  0.48833307    -0.40900
C1518       C  0.35267100  0.09642518  0.49636616     0.32500
C1519       C  0.40338878  0.04687292  0.48943222     0.01100
F1520       F  0.35810411  0.02291367  0.47265411    -0.13200
F1521       F  0.35124146  0.12024585  0.50482783    -0.13700
C1522       C  0.40662634  0.02359827  0.50122091     0.16100
C1523       C  0.43026369  0.01239591  0.50249505     0.25500
C1524       C  0.45141537  0.02448211  0.49279356    -0.40800
C1525       C  0.44835787  0.04771065  0.48110166     0.32400
C1526       C  0.42458079  0.05856793  0.47903373     0.14100
F1527       F  0.38711198  0.01214095  0.51253204    -0.13200
F1528       F  0.46843338  0.06004571  0.47193684    -0.13700
F1529       F  0.43276048  0.99016016  0.51434457    -0.16000
F1530       F  0.42227797  0.08057453  0.46675845    -0.14500
F1531       F  0.39580720  0.09676543  0.50642604    -0.14500
F1532       F  0.31271435  0.04576400  0.47380609    -0.16000
C1533       C  0.55886386  0.02242178  0.57582793     0.14100
C1534       C  0.54601358  0.01321470  0.59695450     0.01100
C1535       C  0.52222075  0.00263183  0.59320677     0.16000
C1536       C  0.51198804  0.00054347  0.56923044     0.25500
C1537       C  0.52486083  0.00940876  0.54822557    -0.40900
C1538       C  0.54832823  0.02062773  0.55174250     0.32500
C1539       C  0.55744296  0.01361224  0.62269089     0.01100
F1540       F  0.50866212  0.99429324  0.61286798    -0.13200
F1541       F  0.56117672  0.02955109  0.53187156    -0.13700
C1542       C  0.56822919  0.03543869  0.63279211     0.16100
C1543       C  0.57924350  0.03525027  0.65669207     0.25500
C1544       C  0.57887583  0.01356864  0.67148855    -0.40800
C1545       C  0.56748974  0.99203846  0.66177015     0.32400
C1546       C  0.55744969  0.99188300  0.63757077     0.14100
F1547       F  0.56794855  0.05706627  0.61966320    -0.13200
F1548       F  0.56747556  0.97054346  0.67514411    -0.13700
F1549       F  0.59021091  0.05632830  0.66545377    -0.16000
F1550       F  0.54869169  0.97001184  0.62829080    -0.14500
F1551       F  0.58198859  0.03241289  0.57831390    -0.14500
F1552       F  0.48957845  0.98909964  0.56637502    -0.16000
C1553       C  0.49231722  0.86276376  0.44390906     0.14100
C1554       C  0.51284589  0.87896246  0.44107603     0.01100
C1555       C  0.53314623  0.87074320  0.42652684     0.16000
C1556       C  0.53274027  0.84718287  0.41490425     0.25500
C1557       C  0.51226073  0.83097598  0.41790877    -0.40900
C1558       C  0.49210721  0.83907852  0.43266728     0.32500
C1559       C  0.51275058  0.90432111  0.45315284     0.01100
F1560       F  0.55354618  0.88544579  0.42369464    -0.13200
F1561       F  0.47143651  0.82466053  0.43504599    -0.13700
C1562       C  0.50747226  0.90686463  0.47877208     0.16100
C1563       C  0.50534683  0.93052375  0.48980543     0.25500
C1564       C  0.50890063  0.95239664  0.47570868    -0.40800
C1565       C  0.51549719  0.94992295  0.45040906     0.32400
C1566       C  0.51705933  0.92621531  0.43917734     0.14100
F1567       F  0.50430646  0.88632729  0.49322389    -0.13200
F1568       F  0.52020372  0.97048032  0.43646396    -0.13700
F1569       F  0.49913437  0.93207606  0.51429529    -0.16000
F1570       F  0.52193724  0.92475561  0.41438862    -0.14500
F1571       F  0.47186395  0.87028722  0.45677193    -0.14500
F1572       F  0.55245646  0.84019424  0.40066693    -0.16000
C1573       C  0.46619121  0.84694363  0.29008583     0.14100
C1574       C  0.47006397  0.86994892  0.30213978     0.01100
C1575       C  0.48249566  0.87058866  0.32511181     0.16000
C1576       C  0.48866406  0.84851049  0.33713887     0.25500
C1577       C  0.48308937  0.82539077  0.32609722    -0.40900
C1578       C  0.47289418  0.82464796  0.30199671     0.32500
C1579       C  0.45671189  0.89241822  0.29379176     0.01100
F1580       F  0.48690585  0.89264891  0.33676593    -0.13200
F1581       F  0.46760762  0.80248132  0.29096783    -0.13700
C1582       C  0.43754907  0.90180771  0.30890394     0.16100
C1583       C  0.42303243  0.92167378  0.30082533     0.25500
C1584       C  0.42747466  0.93272794  0.27745515    -0.40800
C1585       C  0.44753617  0.92415114  0.26282359     0.32400
C1586       C  0.46195625  0.90390855  0.27089579     0.14100
F1587       F  0.43212241  0.89090559  0.33111799    -0.13200
F1588       F  0.45226482  0.93433183  0.24014342    -0.13700
F1589       F  0.40406184  0.92951973  0.31563030    -0.16000
F1590       F  0.48065949  0.89522891  0.25623763    -0.14500
F1591       F  0.45410638  0.84601653  0.26783823    -0.14500
F1592       F  0.49914708  0.84976212  0.36016160    -0.16000
C1593       C  0.46510062  0.08728794  0.21620812     0.14100
C1594       C  0.45419801  0.10967644  0.20812803     0.01100
C1595       C  0.42834064  0.11271746  0.20935041     0.16000
C1596       C  0.41333589  0.09365643  0.21832443     0.25500
C1597       C  0.42393123  0.07097674  0.22642085    -0.40900
C1598       C  0.45003975  0.06806508  0.22563192     0.32500
C1599       C  0.46870792  0.12943260  0.19596747     0.01100
F1600       F  0.41751403  0.13406868  0.20104286    -0.13200
F1601       F  0.46085135  0.04646886  0.23320257    -0.13700
C1602       C  0.47198073  0.12822361  0.17011831     0.16100
C1603       C  0.47836894  0.14955847  0.15682389     0.25500
C1604       C  0.48150222  0.17257328  0.16922008    -0.40800
C1605       C  0.48035753  0.17326410  0.19539229     0.32400
C1606       C  0.47373600  0.15178622  0.20868836     0.14100
F1607       F  0.46710559  0.10678012  0.15753043    -0.13200
F1608       F  0.48414042  0.19493539  0.20791457    -0.13700
F1609       F  0.48093610  0.14773154  0.13167816    -0.16000
F1610       F  0.47068839  0.15310680  0.23377871    -0.14500
F1611       F  0.49013275  0.08395519  0.21454517    -0.14500
F1612       F  0.38832561  0.09761557  0.21914178    -0.16000
C1613       C  0.31965379  0.03638724  0.36511376     0.14100
C1614       C  0.29456331  0.04216010  0.36098261     0.01100
C1615       C  0.28385015  0.03802907  0.33739880     0.16000
C1616       C  0.29840972  0.02830701  0.31797637     0.25500
C1617       C  0.32379089  0.02316875  0.32206734    -0.40900
C1618       C  0.33412662  0.02703508  0.34591176     0.32500
C1619       C  0.28101441  0.05478528  0.38106861     0.01100
F1620       F  0.25959913  0.04391435  0.33314495    -0.13200
F1621       F  0.35852906  0.02223244  0.35064229    -0.13700
C1622       C  0.27694859  0.08053281  0.37939451     0.16100
C1623       C  0.27071967  0.09409759  0.40066736     0.25500
C1624       C  0.26840408  0.08197302  0.42384523    -0.40800
C1625       C  0.27064440  0.05593053  0.42507363     0.32400
C1626       C  0.27721513  0.04243959  0.40383772     0.14100
F1627       F  0.28073430  0.09275429  0.35753835    -0.13200
F1628       F  0.26772528  0.04371839  0.44704780    -0.13700
F1629       F  0.26710191  0.11908203  0.39862071    -0.16000
F1630       F  0.28136065  0.01754198  0.40573744    -0.14500
F1631       F  0.33050940  0.04102844  0.38756449    -0.14500
F1632       F  0.28815091  0.02517504  0.29502990    -0.16000
C1633       C  0.41203956  0.01217403  0.12180234     0.14100
C1634       C  0.43820479  0.01207076  0.11994742     0.01100
C1635       C  0.45227303  0.01256486  0.14224010     0.16000
C1636       C  0.44048775  0.01247571  0.16571131     0.25500
C1637       C  0.41428867  0.01237612  0.16753667    -0.40900
C1638       C  0.40026377  0.01246675  0.14517869     0.32500
C1639       C  0.45073559  0.00995565  0.09495865     0.01100
F1640       F  0.47756223  0.01312921  0.14130307    -0.13200
F1641       F  0.37496268  0.01154262  0.14580960    -0.13700
C1642       C  0.44519131  0.02651172  0.07518641     0.16100
C1643       C  0.45697130  0.02401477  0.05180894     0.25500
C1644       C  0.47466763  0.00506856  0.04780228    -0.40800
C1645       C  0.47984949  0.98837960  0.06736361     0.32400
C1646       C  0.46803234  0.99071039  0.09054132     0.14100
F1647       F  0.42859238  0.04531119  0.07857900    -0.13200
F1648       F  0.49671650  0.96980594  0.06402190    -0.13700
F1649       F  0.45095972  0.03993017  0.03306804    -0.16000
F1650       F  0.47312499  0.97368247  0.10856724    -0.14500
F1651       F  0.39772572  0.01078141  0.10093784    -0.14500
F1652       F  0.45476429  0.01250148  0.18663505    -0.16000
C1653       C  0.41277348  0.97950284  0.37971205     0.14100
C1654       C  0.43860719  0.98323279  0.38218744     0.01100
C1655       C  0.45275603  0.98675679  0.36024444     0.16000
C1656       C  0.44114338  0.98807680  0.33668810     0.25500
C1657       C  0.41515377  0.98520330  0.33435571    -0.40900
C1658       C  0.40135302  0.97976006  0.35619020     0.32500
C1659       C  0.45041253  0.98471710  0.40759604     0.01100
F1660       F  0.47793439  0.98897668  0.36158582    -0.13200
F1661       F  0.37643850  0.97538997  0.35510788    -0.13700
C1662       C  0.44571705  0.96655492  0.42615120     0.16100
C1663       C  0.45594076  0.96894320  0.45024988     0.25500
C1664       C  0.47153497  0.98917703  0.45610456    -0.40800
C1665       C  0.47659536  0.00695290  0.43752838     0.32400
C1666       C  0.46587682  0.00502910  0.41379368     0.14100
F1667       F  0.43153757  0.94626168  0.42087624    -0.13200
F1668       F  0.49247730  0.02608234  0.44230263    -0.13700
F1669       F  0.45075298  0.95145628  0.46778383    -0.16000
F1670       F  0.47025595  0.02345734  0.39701748    -0.14500
F1671       F  0.39819151  0.97676488  0.40021912    -0.14500
F1672       F  0.45540470  0.99198100  0.31617222    -0.16000
C1673       C  0.59019685  0.28151905  0.53559652     0.14100
C1674       C  0.61370336  0.28475031  0.54691692     0.01100
C1675       C  0.61677255  0.27859511  0.57212884     0.16000
C1676       C  0.59652593  0.27056286  0.58618619     0.25500
C1677       C  0.57268102  0.26837458  0.57529157    -0.40900
C1678       C  0.56979157  0.27318976  0.54969878     0.32500
C1679       C  0.63415693  0.29799826  0.53407238     0.01100
F1680       F  0.63912800  0.28190488  0.58361632    -0.13200
F1681       F  0.54703698  0.27123570  0.53873833    -0.13700
C1682       C  0.63105708  0.32327080  0.52814619     0.16100
C1683       C  0.65153295  0.33771091  0.52123518     0.25500
C1684       C  0.67548177  0.32705225  0.51970427    -0.40800
C1685       C  0.67829874  0.30133402  0.52379945     0.32400
C1686       C  0.65782484  0.28696776  0.53139728     0.14100
F1687       F  0.60841519  0.33435847  0.53054707    -0.13200
F1688       F  0.70098441  0.29038680  0.52152111    -0.13700
F1689       F  0.64791543  0.36224904  0.51612305    -0.16000
F1690       F  0.66120954  0.26251349  0.53698464    -0.14500
F1691       F  0.58689220  0.28722454  0.51115388    -0.14500
F1692       F  0.60022325  0.26539889  0.61072120    -0.16000
C1693       C  0.53627013  0.08840841  0.71611528     0.14100
C1694       C  0.54584338  0.11285460  0.71652402     0.01100
C1695       C  0.56965368  0.11726260  0.72651259     0.16000
C1696       C  0.58437074  0.09741135  0.73430508     0.25500
C1697       C  0.57544891  0.07291749  0.73238457    -0.40900
C1698       C  0.55101818  0.06847949  0.72416513     0.32500
C1699       C  0.53350970  0.13302640  0.70254840     0.01100
F1700       F  0.57940809  0.14061569  0.72699944    -0.13200
F1701       F  0.54211274  0.04483644  0.72246541    -0.13700
C1702       C  0.52846187  0.15614994  0.71381252     0.16100
C1703       C  0.52155803  0.17667234  0.69919926     0.25500
C1704       C  0.51977325  0.17427384  0.67311744    -0.40800
C1705       C  0.52396881  0.15074850  0.66213141     0.32400
C1706       C  0.53065083  0.13037616  0.67670432     0.14100
F1707       F  0.53107870  0.15899092  0.73884959    -0.13200
F1708       F  0.52201302  0.14737239  0.63710838    -0.13700
F1709       F  0.51783144  0.19905378  0.71040010    -0.16000
F1710       F  0.53587794  0.10835760  0.66530397    -0.14500
F1711       F  0.51317695  0.08377440  0.70679064    -0.14500
F1712       F  0.60763072  0.10206434  0.74325735    -0.16000
C1713       C  0.39838187  0.21709619  0.54529116     0.14100
C1714       C  0.37594837  0.21863088  0.55874080     0.01100
C1715       C  0.37575077  0.22947419  0.58246363     0.16000
C1716       C  0.39806767  0.23648475  0.59367907     0.25500
C1717       C  0.42088354  0.23281196  0.58122296    -0.40900
C1718       C  0.42085653  0.22430469  0.55649127     0.32500
C1719       C  0.35412925  0.20432156  0.55054287     0.01100
F1720       F  0.35408604  0.23166502  0.59538015    -0.13200
F1721       F  0.44262142  0.22111786  0.54401181    -0.13700
C1722       C  0.34912056  0.18148744  0.56219439     0.16100
C1723       C  0.33002437  0.16624025  0.55347332     0.25500
C1724       C  0.31552284  0.17368350  0.53285628    -0.40800
C1725       C  0.31962349  0.19739432  0.52220998     0.32400
C1726       C  0.33900298  0.21252963  0.53089518     0.14100
F1727       F  0.36345166  0.17353418  0.58153937    -0.13200
F1728       F  0.30560882  0.20558626  0.50274693    -0.13700
F1729       F  0.32610711  0.14402029  0.56493430    -0.16000
F1730       F  0.34329986  0.23491845  0.51992598    -0.14500
F1731       F  0.39870424  0.20679202  0.52216460    -0.14500
F1732       F  0.39744710  0.24602067  0.61713628    -0.16000
C1733       C  0.46310964  0.33910283  0.71228468     0.14100
C1734       C  0.46329156  0.36330767  0.70227516     0.01100
C1735       C  0.47278324  0.36744507  0.67833651     0.16000
C1736       C  0.48085497  0.34746779  0.66397007     0.25500
C1737       C  0.47987641  0.32307516  0.67349634    -0.40900
C1738       C  0.47169307  0.31902024  0.69801590     0.32500
C1739       C  0.44909185  0.38340463  0.71408040     0.01100
F1740       F  0.47238397  0.39063999  0.66817348    -0.13200
F1741       F  0.47032404  0.29555703  0.70739776    -0.13700
C1742       C  0.46106866  0.40438501  0.72412549     0.16100
C1743       C  0.44708627  0.42520842  0.73134934     0.25500
C1744       C  0.42102119  0.42535619  0.72800119    -0.40800
C1745       C  0.40922430  0.40389423  0.71826553     0.32400
C1746       C  0.42315807  0.38316430  0.71153030     0.14100
F1747       F  0.48628666  0.40486843  0.72629184    -0.13200
F1748       F  0.38411768  0.40280488  0.71502205    -0.13700
F1749       F  0.45909695  0.44536285  0.74086890    -0.16000
F1750       F  0.41140556  0.36318562  0.70126822    -0.14500
F1751       F  0.45336655  0.33485082  0.73524607    -0.14500
F1752       F  0.48889237  0.35189423  0.64038572    -0.16000
C1753       C  0.53282817  0.42048456  0.54637983     0.14100
C1754       C  0.51295153  0.40320878  0.54529489     0.01100
C1755       C  0.49016216  0.41139236  0.53502674     0.16000
C1756       C  0.48763101  0.43559009  0.52529580     0.25500
C1757       C  0.50735513  0.45295498  0.52659683    -0.40900
C1758       C  0.52971067  0.44525847  0.53821700     0.32500
C1759       C  0.51531359  0.37736437  0.55623968     0.01100
F1760       F  0.46999806  0.39609826  0.53480494    -0.13200
F1761       F  0.54876162  0.46158311  0.54146555    -0.13700
C1762       C  0.52505963  0.37403743  0.58040171     0.16100
C1763       C  0.52541017  0.35046902  0.59170828     0.25500
C1764       C  0.51493183  0.32938143  0.57977684    -0.40800
C1765       C  0.50621882  0.33238615  0.55510104     0.32400
C1766       C  0.50673137  0.35597014  0.54339130     0.14100
F1767       F  0.53310409  0.39391094  0.59387240    -0.13200
F1768       F  0.49681276  0.31263578  0.54234832    -0.13700
F1769       F  0.53520657  0.34873223  0.61500725    -0.16000
F1770       F  0.49865619  0.35787607  0.51945561    -0.14500
F1771       F  0.55557135  0.41328722  0.55489180    -0.14500
F1772       F  0.46575329  0.44198532  0.51425965    -0.16000
C1773       C  0.46460738  0.07559244  0.55238430     0.14100
C1774       C  0.48206889  0.09469152  0.54740029     0.01100
C1775       C  0.50279205  0.08887749  0.53233763     0.16000
C1776       C  0.50578614  0.06489373  0.52234459     0.25500
C1777       C  0.48870821  0.04575640  0.52784208    -0.40900
C1778       C  0.46822624  0.05129241  0.54320769     0.32500
C1779       C  0.47972932  0.12006117  0.55912186     0.01100
F1780       F  0.52062034  0.10625256  0.52778184    -0.13200
F1781       F  0.45179197  0.03313386  0.54948623    -0.13700
C1782       C  0.47591133  0.12234408  0.58496926     0.16100
C1783       C  0.47588585  0.14576322  0.59653529     0.25500
C1784       C  0.48082979  0.16775959  0.58283011    -0.40800
C1785       C  0.48370868  0.16563232  0.55679891     0.32400
C1786       C  0.48276557  0.14212821  0.54505092     0.14100
F1787       F  0.47353104  0.10173171  0.59947197    -0.13200
F1788       F  0.48755433  0.18626052  0.54267099    -0.13700
F1789       F  0.47219206  0.14655079  0.62157323    -0.16000
F1790       F  0.48497370  0.14095136  0.51985848    -0.14500
F1791       F  0.44383379  0.08047782  0.56596704    -0.14500
F1792       F  0.52539779  0.06037264  0.50701037    -0.16000
C1793       C  0.28021641  0.19432048  0.67583485     0.14100
C1794       C  0.26497875  0.20080005  0.65531935     0.01100
C1795       C  0.24722849  0.21989649  0.65852855     0.16000
C1796       C  0.24447131  0.23181450  0.68164671     0.25500
C1797       C  0.25926452  0.22493218  0.70220931    -0.40900
C1798       C  0.27729108  0.20620223  0.69906710     0.32500
C1799       C  0.26627833  0.18673547  0.63114347     0.01100
F1800       F  0.23189800  0.22650478  0.63946685    -0.13200
F1801       F  0.29184652  0.19924915  0.71858237    -0.13700
C1802       C  0.26350574  0.16063651  0.63085565     0.16100
C1803       C  0.26206754  0.14752693  0.60823814     0.25500
C1804       C  0.26296317  0.16015680  0.58521411    -0.40800
C1805       C  0.26654939  0.18617534  0.58543837     0.32400
C1806       C  0.26842101  0.19927095  0.60810850     0.14100
F1807       F  0.26074754  0.14786635  0.65253560    -0.13200
F1808       F  0.26818036  0.19898848  0.56366831    -0.13700
F1809       F  0.25817491  0.12257425  0.60900327    -0.16000
F1810       F  0.27214579  0.22429804  0.60752406    -0.14500
F1811       F  0.29802116  0.17651229  0.67335712    -0.14500
F1812       F  0.22725774  0.25022765  0.68399849    -0.16000
C1813       C  0.19109158  0.17800099  0.72044697     0.14100
C1814       C  0.20063204  0.15740961  0.73398077     0.01100
C1815       C  0.22171078  0.16145131  0.74922910     0.16000
C1816       C  0.23294439  0.18503596  0.75072368     0.25500
C1817       C  0.22272765  0.20567696  0.73821424    -0.40900
C1818       C  0.20171680  0.20194219  0.72295624     0.32500
C1819       C  0.18814668  0.13215292  0.73330254     0.01100
F1820       F  0.23091943  0.14280195  0.76365094    -0.13200
F1821       F  0.19143111  0.22144906  0.71054897    -0.13700
C1822       C  0.20208723  0.10989890  0.73059281     0.16100
C1823       C  0.19056264  0.08630709  0.73237671     0.25500
C1824       C  0.16467526  0.08428322  0.73611286    -0.40800
C1825       C  0.15061995  0.10650416  0.73762330     0.32400
C1826       C  0.16218006  0.12997097  0.73668265     0.14100
F1827       F  0.22694646  0.11093468  0.72599313    -0.13200
F1828       F  0.12556866  0.10563927  0.74114056    -0.13700
F1829       F  0.20469318  0.06544883  0.73001750    -0.16000
F1830       F  0.14791802  0.15057199  0.74026272    -0.14500
F1831       F  0.17158060  0.17496216  0.70457709    -0.14500
F1832       F  0.25341546  0.18801890  0.76536066    -0.16000
C1833       C  0.30577065  0.32685641  0.77635792     0.14100
C1834       C  0.29589650  0.34700927  0.76247857     0.01100
C1835       C  0.27501434  0.34237922  0.74712656     0.16000
C1836       C  0.26560153  0.31821561  0.74419951     0.25500
C1837       C  0.27546799  0.29822182  0.75791811    -0.40900
C1838       C  0.29510973  0.30291257  0.77468488     0.32500
C1839       C  0.30763321  0.37251280  0.76293515     0.01100
F1840       F  0.26333268  0.36139404  0.73516396    -0.13200
F1841       F  0.30401388  0.28439121  0.78942104    -0.13700
C1842       C  0.31179060  0.38547550  0.74039062     0.16100
C1843       C  0.32206789  0.40948099  0.74037554     0.25500
C1844       C  0.32989576  0.42071632  0.76269708    -0.40800
C1845       C  0.32664609  0.40766603  0.78521124     0.32400
C1846       C  0.31489430  0.38418906  0.78545251     0.14100
F1847       F  0.30690070  0.37449401  0.71809344    -0.13200
F1848       F  0.33476928  0.41770373  0.80700295    -0.13700
F1849       F  0.32585128  0.42115637  0.71823018    -0.16000
F1850       F  0.31042711  0.37309338  0.80775048    -0.14500
F1851       F  0.32615909  0.33004982  0.79103813    -0.14500
F1852       F  0.24611506  0.31441015  0.72844652    -0.16000
C1853       C  0.32411833  0.27057006  0.68763664     0.14100
C1854       C  0.34523599  0.26457494  0.70223315     0.01100
C1855       C  0.34146308  0.25729914  0.72714784     0.16000
C1856       C  0.31736431  0.25509611  0.73693977     0.25500
C1857       C  0.29625540  0.26119495  0.72256911    -0.40900
C1858       C  0.29989452  0.26920582  0.69780455     0.32500
C1859       C  0.37109919  0.26468602  0.69150891     0.01100
F1860       F  0.36125051  0.25218110  0.74211788    -0.13200
F1861       F  0.28005672  0.27546662  0.68338054    -0.13700
C1862       C  0.38101904  0.28600482  0.67977413     0.16100
C1863       C  0.40516783  0.28562865  0.66950801     0.25500
C1864       C  0.42011779  0.26409392  0.67107174    -0.40800
C1865       C  0.41051305  0.24306758  0.68348323     0.32400
C1866       C  0.38624652  0.24326170  0.69327802     0.14100
F1867       F  0.36737039  0.30726318  0.67830175    -0.13200
F1868       F  0.42400175  0.22167583  0.68472989    -0.13700
F1869       F  0.41396546  0.30632226  0.65790003    -0.16000
F1870       F  0.37711245  0.22201650  0.70356334    -0.14500
F1871       F  0.32686572  0.27698114  0.66330194    -0.14500
F1872       F  0.31458823  0.24615184  0.76043467    -0.16000
C1873       C  0.32222453  0.48130345  0.86869270     0.14100
C1874       C  0.30256633  0.46430080  0.86661548     0.01100
C1875       C  0.29386112  0.45707589  0.84293870     0.16000
C1876       C  0.30550208  0.46618556  0.82143685     0.25500
C1877       C  0.32636502  0.48178568  0.82370284    -0.40900
C1878       C  0.33422617  0.48981005  0.84736729     0.32500
C1879       C  0.29452558  0.45092246  0.88900286     0.01100
F1880       F  0.27527716  0.44001479  0.84076911    -0.13200
F1881       F  0.35439616  0.50491201  0.84985095    -0.13700
C1882       C  0.27552768  0.46023391  0.90430689     0.16100
C1883       C  0.26825335  0.44698338  0.92558883     0.25500
C1884       C  0.28013911  0.42435847  0.93173531    -0.40800
C1885       C  0.30041212  0.41618815  0.91707863     0.32400
C1886       C  0.30726515  0.42920896  0.89576809     0.14100
F1887       F  0.26379296  0.48184586  0.89833791    -0.13200
F1888       F  0.31336464  0.39522660  0.92297718    -0.13700
F1889       F  0.24903507  0.45577596  0.93948686    -0.16000
F1890       F  0.32626360  0.42047793  0.88147525    -0.14500
F1891       F  0.33096383  0.48814023  0.89147465    -0.14500
F1892       F  0.29770034  0.45832294  0.79865772    -0.16000
C1893       C  0.18616280  0.43793060  0.15379314     0.14100
C1894       C  0.20418813  0.45306819  0.14243202     0.01100
C1895       C  0.20971743  0.47654995  0.15251270     0.16000
C1896       C  0.19654782  0.48524785  0.17326837     0.25500
C1897       C  0.17748695  0.47058599  0.18380843    -0.40900
C1898       C  0.17296016  0.44656430  0.17433799     0.32500
C1899       C  0.21640835  0.44411496  0.11963571     0.01100
F1900       F  0.22741803  0.49118845  0.14190935    -0.13200
F1901       F  0.15515643  0.43168700  0.18447103    -0.13700
C1902       C  0.21036910  0.45455560  0.09633266     0.16100
C1903       C  0.21784286  0.44263113  0.07433005     0.25500
C1904       C  0.23124982  0.42023005  0.07564161    -0.40800
C1905       C  0.23848530  0.41072476  0.09898076     0.32400
C1906       C  0.23116840  0.42262701  0.12081409     0.14100
F1907       F  0.19583238  0.47523486  0.09495100    -0.13200
F1908       F  0.25197335  0.38938444  0.10067593    -0.13700
F1909       F  0.21061340  0.45196229  0.05194645    -0.16000
F1910       F  0.23735275  0.41248430  0.14319806    -0.14500
F1911       F  0.18054194  0.41516164  0.14421648    -0.14500
F1912       F  0.20138837  0.50850828  0.18202559    -0.16000
C1913       C  0.39606823  0.30188885  0.06342803     0.14100
C1914       C  0.38511080  0.28498544  0.04680027     0.01100
C1915       C  0.39678950  0.26218729  0.04173297     0.16000
C1916       C  0.41892662  0.25590655  0.05412376     0.25500
C1917       C  0.42933548  0.27242276  0.07176957    -0.40900
C1918       C  0.41802673  0.29572743  0.07577138     0.32500
C1919       C  0.36128856  0.29177426  0.03529005     0.01100
F1920       F  0.38622906  0.24572784  0.02563167    -0.13200
F1921       F  0.42782934  0.31229413  0.09224016    -0.13700
C1922       C  0.36130140  0.30494273  0.01273988     0.16100
C1923       C  0.34015345  0.31822820  0.00550927     0.25500
C1924       C  0.31896598  0.31840485  0.02082219    -0.40800
C1925       C  0.31801554  0.30296357  0.04183688     0.32400
C1926       C  0.33925935  0.28990986  0.04928639     0.14100
F1927       F  0.38240941  0.30659329  0.99889477    -0.13200
F1928       F  0.29694839  0.30121903  0.05556412    -0.13700
F1929       F  0.34080697  0.33208360  0.98433419    -0.16000
F1930       F  0.33892986  0.27694348  0.07103215    -0.14500
F1931       F  0.38497776  0.32414812  0.06822930    -0.14500
F1932       F  0.42918081  0.23311870  0.05010620    -0.16000
C1933       C  0.07993995  0.45180010  0.03407205     0.14100
C1934       C  0.09790363  0.45429904  0.01494025     0.01100
C1935       C  0.09091033  0.46704471  0.99304166     0.16000
C1936       C  0.06718974  0.47776238  0.99073648     0.25500
C1937       C  0.04917982  0.47496337  0.00962622    -0.40900
C1938       C  0.05566499  0.46131613  0.03109230     0.32500
C1939       C  0.12335894  0.44266975  0.01705383     0.01100
F1940       F  0.10685359  0.46868606  0.97346223    -0.13200
F1941       F  0.03858309  0.45734992  0.04930799    -0.13700
C1942       C  0.12596086  0.41773618  0.02474267     0.16100
C1943       C  0.14929221  0.40607244  0.02478586     0.25500
C1944       C  0.17075582  0.41841958  0.01569938    -0.40800
C1945       C  0.16845167  0.44371561  0.00899362     0.32400
C1946       C  0.14514614  0.45579650  0.01011454     0.14100
F1947       F  0.10567380  0.40394890  0.03095514    -0.13200
F1948       F  0.18860823  0.45674461  0.00099181    -0.13700
F1949       F  0.15043378  0.38210982  0.03287975    -0.16000
F1950       F  0.14388225  0.48035777  0.00414937    -0.14500
F1951       F  0.08593719  0.44050251  0.05592107    -0.14500
F1952       F  0.06187044  0.49122698  0.96996637    -0.16000
C1953       C  0.37889599  0.41376342  0.99517433     0.14100
C1954       C  0.38026115  0.43868901  0.98707144     0.01100
C1955       C  0.35779165  0.45114538  0.98113968     0.16000
C1956       C  0.33466393  0.43884253  0.98319052     0.25500
C1957       C  0.33360277  0.41366830  0.99048063    -0.40900
C1958       C  0.35596496  0.40139139  0.99659942     0.32500
C1959       C  0.40509704  0.45152651  0.98587244     0.01100
F1960       F  0.35821383  0.47508933  0.97296197    -0.13200
F1961       F  0.35554968  0.37758871  0.00514484    -0.13700
C1962       C  0.42555218  0.44017808  0.97374929     0.16100
C1963       C  0.44959298  0.45052382  0.97539447     0.25500
C1964       C  0.45356304  0.47275395  0.98863063    -0.40800
C1965       C  0.43296570  0.48494007  0.99934614     0.32400
C1966       C  0.40908971  0.47430518  0.99833679     0.14100
F1967       F  0.42224766  0.41893295  0.96037815    -0.13200
F1968       F  0.43626876  0.50668256  0.01190420    -0.13700
F1969       F  0.46900656  0.43873312  0.96427603    -0.16000
F1970       F  0.39015767  0.48571072  0.01065281    -0.14500
F1971       F  0.39978802  0.40151871  0.00259756    -0.14500
F1972       F  0.31338398  0.45137474  0.97759512    -0.16000
C1973       C  0.21698071  0.31923746  0.88036850     0.14100
C1974       C  0.23926872  0.31109255  0.86908488     0.01100
C1975       C  0.26186814  0.31458394  0.88202229     0.16000
C1976       C  0.26215828  0.32575879  0.90573632     0.25500
C1977       C  0.23989497  0.33395595  0.91697288    -0.40900
C1978       C  0.21733396  0.33084656  0.90393537     0.32500
C1979       C  0.23909856  0.29933191  0.84373489     0.01100
F1980       F  0.28380127  0.30790687  0.87129571    -0.13200
F1981       F  0.19561432  0.33886432  0.91412955    -0.13700
C1982       C  0.23104150  0.31281619  0.82266806     0.16100
C1983       C  0.23154876  0.30199435  0.79875638     0.25500
C1984       C  0.24042739  0.27752758  0.79533835    -0.40800
C1985       C  0.24824188  0.26398543  0.81645211     0.32400
C1986       C  0.24754775  0.27471969  0.84035163     0.14100
F1987       F  0.22337432  0.33679865  0.82517345    -0.13200
F1988       F  0.25715555  0.24043774  0.81380196    -0.13700
F1989       F  0.22351997  0.31552421  0.77896104    -0.16000
F1990       F  0.25515580  0.26104030  0.86026111    -0.14500
F1991       F  0.19481658  0.31569320  0.86863850    -0.14500
F1992       F  0.28439088  0.32965595  0.91726338    -0.16000
C1993       C  0.20705885  0.39324803  0.24274653     0.14100
C1994       C  0.19311527  0.37094012  0.24414819     0.01100
C1995       C  0.16704122  0.37262840  0.24606161     0.16000
C1996       C  0.15508792  0.39575767  0.24580053     0.25500
C1997       C  0.16886136  0.41811226  0.24434809    -0.40900
C1998       C  0.19505997  0.41661507  0.24314863     0.32500
C1999       C  0.20534392  0.34584526  0.24416214     0.01100
F2000       F  0.15300284  0.35177505  0.24902581    -0.13200
F2001       F  0.20903587  0.43768607  0.24196971    -0.13700
C2002       C  0.22457993  0.34028823  0.26117220     0.16100
C2003       C  0.23494486  0.31633550  0.26208523     0.25500
C2004       C  0.22610870  0.29727487  0.24635422    -0.40800
C2005       C  0.20696925  0.30263647  0.22935523     0.32400
C2006       C  0.19686424  0.32675358  0.22805807     0.14100
F2007       F  0.23290882  0.35781796  0.27744927    -0.13200
F2008       F  0.19806236  0.28451676  0.21408492    -0.13700
F2009       F  0.25386249  0.31169195  0.27830548    -0.16000
F2010       F  0.17883616  0.33151012  0.21091156    -0.14500
F2011       F  0.23227095  0.39245565  0.24061625    -0.14500
F2012       F  0.12986003  0.39617090  0.24795058    -0.16000
C2013       C  0.26198674  0.19676266  0.39244279     0.14100
C2014       C  0.24105186  0.19747419  0.37648262     0.01100
C2015       C  0.21831476  0.18769207  0.38536584     0.16000
C2016       C  0.21696909  0.17597076  0.40874963     0.25500
C2017       C  0.23807363  0.17449504  0.42424352    -0.40900
C2018       C  0.26041990  0.18565762  0.41614407     0.32500
C2019       C  0.24304021  0.20734666  0.35033237     0.01100
F2020       F  0.19734166  0.18928532  0.37125037    -0.13200
F2021       F  0.28130354  0.18422312  0.43043619    -0.13700
C2022       C  0.23432525  0.19312743  0.32994319     0.16100
C2023       C  0.23521189  0.20257006  0.30552088     0.25500
C2024       C  0.24619747  0.22584501  0.30062922    -0.40800
C2025       C  0.25539695  0.23985976  0.32087098     0.32400
C2026       C  0.25347405  0.23095578  0.34543443     0.14100
F2027       F  0.22515955  0.16982972  0.33361853    -0.13200
F2028       F  0.26599999  0.26248835  0.31681390    -0.13700
F2029       F  0.22474039  0.18914277  0.28685091    -0.16000
F2030       F  0.26128194  0.24573636  0.36446722    -0.14500
F2031       F  0.28439065  0.20553963  0.38459917    -0.14500
F2032       F  0.19501437  0.16585419  0.41621371    -0.16000
C2033       C  0.39231117  0.23536848  0.20141972     0.14100
C2034       C  0.36993970  0.23657487  0.18756658     0.01100
C2035       C  0.37152029  0.23694814  0.16138930     0.16000
C2036       C  0.39477075  0.23642865  0.14936456     0.25500
C2037       C  0.41725470  0.23573302  0.16319466    -0.40900
C2038       C  0.41566780  0.23503537  0.18939377     0.32500
C2039       C  0.34507215  0.23837534  0.20031049     0.01100
F2040       F  0.35049653  0.23886343  0.14736584    -0.13200
F2041       F  0.43673391  0.23378187  0.20339593    -0.13700
C2042       C  0.34010412  0.25803638  0.21697880     0.16100
C2043       C  0.31680085  0.26006920  0.22872445     0.25500
C2044       C  0.29783261  0.24245334  0.22426941    -0.40800
C2045       C  0.30257407  0.22296036  0.20735355     0.32400
C2046       C  0.32591825  0.22096372  0.19547461     0.14100
F2047       F  0.35770051  0.27567730  0.22149081    -0.13200
F2048       F  0.28453984  0.20601915  0.20209225    -0.13700
F2049       F  0.31272953  0.27933387  0.24464477    -0.16000
F2050       F  0.32992133  0.20180176  0.17943285    -0.14500
F2051       F  0.39154035  0.23435943  0.22669911    -0.14500
F2052       F  0.39518462  0.23775711  0.12406636    -0.16000
C2053       C  0.27479074  0.15970848  0.25509453     0.14100
C2054       C  0.29875368  0.15551211  0.26506966     0.01100
C2055       C  0.31266194  0.17638962  0.27327875     0.16000
C2056       C  0.30276814  0.20067922  0.27150722     0.25500
C2057       C  0.27910190  0.20459767  0.26096912    -0.40900
C2058       C  0.26554195  0.18393144  0.25228793     0.32500
C2059       C  0.30953521  0.12962989  0.26532090     0.01100
F2060       F  0.33611742  0.17340567  0.28232825    -0.13200
F2061       F  0.24314327  0.18730146  0.24090560    -0.13700
C2062       C  0.30861274  0.11474930  0.24362159     0.16100
C2063       C  0.31895103  0.09075009  0.24330452     0.25500
C2064       C  0.33127456  0.08117125  0.26436266    -0.40800
C2065       C  0.33215937  0.09580613  0.28617300     0.32400
C2066       C  0.32103215  0.11959619  0.28679596     0.14100
F2067       F  0.29868128  0.12386796  0.22217942    -0.13200
F2068       F  0.34374516  0.08702350  0.30692191    -0.13700
F2069       F  0.31831925  0.07747334  0.22174811    -0.16000
F2070       F  0.32138445  0.13272673  0.30844818    -0.14500
F2071       F  0.26010825  0.14027011  0.24817610    -0.14500
F2072       F  0.31641367  0.22036881  0.27967892    -0.16000
C2073       C  0.23782237  0.30496900  0.11468502     0.14100
C2074       C  0.25844390  0.30756306  0.13089783     0.01100
C2075       C  0.27956900  0.32047756  0.12217663     0.16000
C2076       C  0.27973512  0.33133948  0.09839879     0.25500
C2077       C  0.25920973  0.32871448  0.08218993    -0.40900
C2078       C  0.23834035  0.31514684  0.09050147     0.32500
C2079       C  0.25804563  0.29703019  0.15683636     0.01100
F2080       F  0.30026472  0.32245315  0.13665396    -0.13200
F2081       F  0.21780749  0.31302808  0.07579978    -0.13700
C2082       C  0.25161293  0.27192907  0.16102881     0.16100
C2083       C  0.25151492  0.26204356  0.18524635     0.25500
C2084       C  0.25855993  0.27669202  0.20588924    -0.40800
C2085       C  0.26526711  0.30170518  0.20177733     0.32400
C2086       C  0.26456894  0.31187651  0.17761338     0.14100
F2087       F  0.24577718  0.25675483  0.14160812    -0.13200
F2088       F  0.27252024  0.31633329  0.22110768    -0.13700
F2089       F  0.24412735  0.23807513  0.18862473    -0.16000
F2090       F  0.26983667  0.33644522  0.17459095    -0.14500
F2091       F  0.21669719  0.29350052  0.12259805    -0.14500
F2092       F  0.30020110  0.34430589  0.09107297    -0.16000
C2093       C  0.84773651  0.30937219  0.44304490     0.14100
C2094       C  0.86336088  0.29892304  0.46129501     0.01100
C2095       C  0.85531710  0.29808301  0.48620232     0.16000
C2096       C  0.83271862  0.30938142  0.49295434     0.25500
C2097       C  0.81833260  0.32193626  0.47488681    -0.40900
C2098       C  0.82588508  0.32146456  0.44987718     0.32500
C2099       C  0.88899046  0.29194427  0.45410418     0.01100
F2100       F  0.87015607  0.28813532  0.50416194    -0.13200
F2101       F  0.81310780  0.33427760  0.43223544    -0.13700
C2102       C  0.90396169  0.30985182  0.44221009     0.16100
C2103       C  0.92533517  0.30265006  0.42941343     0.25500
C2104       C  0.93279602  0.27760275  0.42933090    -0.40800
C2105       C  0.91942119  0.26012609  0.44369224     0.32400
C2106       C  0.89739961  0.26722724  0.45580080     0.14100
F2107       F  0.89682855  0.33414308  0.44153308    -0.13200
F2108       F  0.92627253  0.23575341  0.44399081    -0.13700
F2109       F  0.93794258  0.31995725  0.41598207    -0.16000
F2110       F  0.88335311  0.24965489  0.46738559    -0.14500
F2111       F  0.85461144  0.30938916  0.41866744    -0.14500
F2112       F  0.82630482  0.31039422  0.51742953    -0.16000
C2113       C  0.09567628  0.22676209  0.46336791     0.14100
C2114       C  0.10651721  0.20356226  0.45839465     0.01100
C2115       C  0.09609698  0.18782162  0.44030678     0.16000
C2116       C  0.07582784  0.19581172  0.42620086     0.25500
C2117       C  0.06572844  0.21971431  0.43003581    -0.40900
C2118       C  0.07522798  0.23480100  0.44936236     0.32500
C2119       C  0.12967677  0.19604457  0.47073231     0.01100
F2120       F  0.10643108  0.16521676  0.43544272    -0.13200
F2121       F  0.06595259  0.25797854  0.45353991    -0.13700
C2122       C  0.12904150  0.17737881  0.48893156     0.16100
C2123       C  0.15114981  0.16632773  0.49685914     0.25500
C2124       C  0.17402955  0.17381424  0.48654977    -0.40800
C2125       C  0.17485950  0.19375910  0.46973989     0.32400
C2126       C  0.15265639  0.20480593  0.46171809     0.14100
F2127       F  0.10691105  0.16877999  0.49771576    -0.13200
F2128       F  0.19687716  0.20123974  0.45980726    -0.13700
F2129       F  0.15010585  0.14726256  0.51347112    -0.16000
F2130       F  0.15338922  0.22262710  0.44375597    -0.14500
F2131       F  0.10550652  0.24192540  0.48111433    -0.14500
F2132       F  0.06672858  0.18054087  0.40813890    -0.16000
C2133       C  0.06738598  0.40262059  0.31378311     0.14100
C2134       C  0.05489339  0.38749464  0.29639250     0.01100
C2135       C  0.05227950  0.39560882  0.27164665     0.16000
C2136       C  0.06338898  0.41790403  0.26404772     0.25500
C2137       C  0.07755836  0.43198789  0.28105555    -0.40900
C2138       C  0.07905918  0.42444372  0.30607339     0.32500
C2139       C  0.04638421  0.36254553  0.30400863     0.01100
F2140       F  0.04053465  0.38112242  0.25450649    -0.13200
F2141       F  0.09285338  0.43752984  0.32280396    -0.13700
C2142       C  0.02106974  0.35602395  0.30272340     0.16100
C2143       C  0.01279450  0.33382631  0.31357781     0.25500
C2144       C  0.02974354  0.31821443  0.32611146    -0.40800
C2145       C  0.05522505  0.32418406  0.32615465     0.32400
C2146       C  0.06354339  0.34590731  0.31472099     0.14100
F2147       F  0.00416975  0.37200211  0.29270757    -0.13200
F2148       F  0.07191692  0.30978750  0.33855419    -0.13700
F2149       F  0.98796070  0.32892472  0.31410346    -0.16000
F2150       F  0.08827202  0.35139959  0.31525157    -0.14500
F2151       F  0.06919419  0.39563316  0.33807162    -0.14500
F2152       F  0.06232539  0.42444358  0.23960384    -0.16000
C2153       C  0.99550660  0.38008360  0.41531237     0.14100
C2154       C  0.98994628  0.38230418  0.44082450     0.01100
C2155       C  0.98596111  0.36024929  0.45466944     0.16000
C2156       C  0.98766330  0.33658888  0.44321360     0.25500
C2157       C  0.99306145  0.33448596  0.41757736    -0.40900
C2158       C  0.99691732  0.35662054  0.40385421     0.32500
C2159       C  0.98951161  0.40758097  0.45290923     0.01100
F2160       F  0.97997557  0.36164599  0.47922700    -0.13200
F2161       F  0.00289594  0.35558864  0.37926918    -0.13700
C2162       C  0.97427005  0.42696420  0.44355060     0.16100
C2163       C  0.97526254  0.45108329  0.45393776     0.25500
C2164       C  0.99143277  0.45627320  0.47390415    -0.40800
C2165       C  0.00652311  0.43698781  0.48329825     0.32400
C2166       C  0.00557472  0.41296173  0.47298975     0.14100
F2167       F  0.95834427  0.42250885  0.42436152    -0.13200
F2168       F  0.02244662  0.44157753  0.50247408    -0.13700
F2169       F  0.96068301  0.46941692  0.44434633    -0.16000
F2170       F  0.02105371  0.39513260  0.48211725    -0.14500
F2171       F  0.00039358  0.40072948  0.40150981    -0.14500
F2172       F  0.98323133  0.31584101  0.45699784    -0.16000
C2173       C  0.87284842  0.25144748  0.33375350     0.14100
C2174       C  0.87044378  0.23923199  0.31060471     0.01100
C2175       C  0.89217896  0.22919180  0.29955221     0.16000
C2176       C  0.91557032  0.23136622  0.31142772     0.25500
C2177       C  0.91756664  0.24283699  0.33494305    -0.40900
C2178       C  0.89595928  0.25285983  0.34589205     0.32500
C2179       C  0.84536346  0.23776562  0.29808267     0.01100
F2180       F  0.89072161  0.21672364  0.27755948    -0.13200
F2181       F  0.89735518  0.26473888  0.36822834    -0.13700
C2182       C  0.84210442  0.24599338  0.27333459     0.16100
C2183       C  0.81824370  0.24692571  0.26253673     0.25500
C2184       C  0.79696371  0.23987602  0.27617526    -0.40800
C2185       C  0.80019427  0.23077669  0.30055360     0.32400
C2186       C  0.82410258  0.22961929  0.31133558     0.14100
F2187       F  0.86186640  0.25430320  0.25990587    -0.13200
F2188       F  0.78020138  0.22312792  0.31400462    -0.13700
F2189       F  0.81577646  0.25565789  0.23889759    -0.16000
F2190       F  0.82647366  0.22053515  0.33485086    -0.14500
F2191       F  0.85283545  0.26264203  0.34446020    -0.14500
F2192       F  0.93608326  0.22157517  0.30032421    -0.16000
C2193       C  0.13018308  0.25391029  0.33840014     0.14100
C2194       C  0.13196673  0.25718652  0.31240680     0.01100
C2195       C  0.10957818  0.25917415  0.29858488     0.16000
C2196       C  0.08617584  0.25824437  0.31056534     0.25500
C2197       C  0.08457029  0.25590611  0.33670227    -0.40900
C2198       C  0.10695619  0.25361962  0.35037585     0.32500
C2199       C  0.15720722  0.25824964  0.30015065     0.01100
F2200       F  0.11028915  0.26260622  0.27351333    -0.13200
F2201       F  0.10644767  0.25030308  0.37547895    -0.13700
C2202       C  0.16306389  0.24278437  0.27970864     0.16100
C2203       C  0.18716473  0.24274358  0.26946075     0.25500
C2204       C  0.20617414  0.25777887  0.27955336    -0.40800
C2205       C  0.20042793  0.27343077  0.29974002     0.32400
C2206       C  0.17616439  0.27393379  0.30968226     0.14100
F2207       F  0.14572441  0.22703110  0.27010035    -0.13200
F2208       F  0.21831063  0.28807035  0.31002600    -0.13700
F2209       F  0.19212340  0.22768115  0.24971342    -0.16000
F2210       F  0.17114053  0.28995801  0.32861900    -0.14500
F2211       F  0.15105364  0.25029436  0.35230890    -0.14500
F2212       F  0.06511645  0.26034711  0.29664373    -0.16000
C2213       C  0.79783736  0.48274540  0.64466096     0.14100
C2214       C  0.79822646  0.45747967  0.63784755     0.01100
C2215       C  0.80831249  0.43978278  0.65432698     0.16000
C2216       C  0.82064726  0.44745938  0.67575811     0.25500
C2217       C  0.82141308  0.47276658  0.68210487    -0.40900
C2218       C  0.80912679  0.49033810  0.66694187     0.32500
C2219       C  0.79118153  0.44937485  0.61257896     0.01100
F2220       F  0.80775045  0.41509164  0.64869171    -0.13200
F2221       F  0.81039035  0.51505689  0.67230391    -0.13700
C2222       C  0.80851856  0.43564187  0.59855822     0.16100
C2223       C  0.80094153  0.42292100  0.57732534     0.25500
C2224       C  0.77631309  0.42509556  0.56878021    -0.40800
C2225       C  0.75957538  0.44093129  0.58132601     0.32400
C2226       C  0.76689437  0.45276939  0.60339704     0.14100
F2227       F  0.83251549  0.43329125  0.60638021    -0.13200
F2228       F  0.73552394  0.44296640  0.57362995    -0.13700
F2229       F  0.81737064  0.40744243  0.56590742    -0.16000
F2230       F  0.74982498  0.46590019  0.61668329    -0.14500
F2231       F  0.78837610  0.50017981  0.62891713    -0.14500
F2232       F  0.83326760  0.43030045  0.68934816    -0.16000
C2233       C  0.80471138  0.51298430  0.86005446     0.14100
C2234       C  0.79479836  0.53703467  0.86192839     0.01100
C2235       C  0.79447106  0.55278459  0.84106052     0.16000
C2236       C  0.80617990  0.54536896  0.81909830     0.25500
C2237       C  0.81826584  0.52227213  0.81798229    -0.40900
C2238       C  0.81623296  0.50551584  0.83799322     0.32500
C2239       C  0.78886948  0.54737064  0.88639469     0.01100
F2240       F  0.78436682  0.57595560  0.84260201    -0.13200
F2241       F  0.82705022  0.48266866  0.83678888    -0.13700
C2242       C  0.80728757  0.56092179  0.89909431     0.16100
C2243       C  0.80122990  0.57408371  0.92059929     0.25500
C2244       C  0.77678054  0.57334092  0.92986592    -0.40800
C2245       C  0.75873672  0.55841013  0.91796715     0.32400
C2246       C  0.76474382  0.54565157  0.89611392     0.14100
F2247       F  0.83084114  0.56230690  0.88991423    -0.13200
F2248       F  0.73483709  0.55783255  0.92629043    -0.13700
F2249       F  0.81897375  0.58826536  0.93182381    -0.16000
F2250       F  0.74679137  0.53275480  0.88374788    -0.14500
F2251       F  0.80490804  0.49758811  0.88014588    -0.14500
F2252       F  0.80639925  0.56099967  0.79933731    -0.16000
C2253       C  0.96652091  0.49510037  0.58847188     0.14100
C2254       C  0.94988861  0.51448618  0.59439263     0.01100
C2255       C  0.94461522  0.53254328  0.57594155     0.16000
C2256       C  0.95549153  0.53096000  0.55207434     0.25500
C2257       C  0.97199368  0.51141759  0.54627369    -0.40900
C2258       C  0.97758387  0.49374445  0.56485026     0.32500
C2259       C  0.93722448  0.51488179  0.61931865     0.01100
F2260       F  0.92902697  0.55180282  0.58108741    -0.13200
F2261       F  0.99405542  0.47512755  0.56011310    -0.13700
C2262       C  0.95104807  0.51442938  0.64174204     0.16100
C2263       C  0.93899133  0.51260701  0.66502148     0.25500
C2264       C  0.91277516  0.51145753  0.66645265    -0.40800
C2265       C  0.89903434  0.51232924  0.64392139     0.32400
C2266       C  0.91108597  0.51397936  0.62077870     0.14100
F2267       F  0.97631534  0.51581204  0.64109298    -0.13200
F2268       F  0.87377532  0.51048838  0.64407126    -0.13700
F2269       F  0.95299627  0.51208476  0.68612176    -0.16000
F2270       F  0.89712118  0.51357999  0.59963157    -0.14500
F2271       F  0.97155188  0.47696218  0.60539879    -0.14500
F2272       F  0.94977846  0.54836627  0.53461310    -0.16000
C2273       C  0.95219849  0.49236445  0.85861177     0.14100
C2274       C  0.93918641  0.48944507  0.88132934     0.01100
C2275       C  0.91302998  0.48720586  0.88025967     0.16000
C2276       C  0.90029689  0.48807448  0.85735338     0.25500
C2277       C  0.91319223  0.49201866  0.83470816    -0.40900
C2278       C  0.93937676  0.49402999  0.83571939     0.32500
C2279       C  0.95259697  0.48997433  0.90607525     0.01100
F2280       F  0.89950535  0.48513423  0.90154901    -0.13200
F2281       F  0.95272172  0.49725808  0.81447513    -0.13700
C2282       C  0.96983634  0.50909571  0.91147826     0.16100
C2283       C  0.98175412  0.51030287  0.93474685     0.25500
C2284       C  0.97626794  0.49298937  0.95365020    -0.40800
C2285       C  0.95918863  0.47380111  0.94847913     0.32400
C2286       C  0.94775059  0.47207255  0.92485322     0.14100
F2287       F  0.97467907  0.52720274  0.89448111    -0.13200
F2288       F  0.95350285  0.45682323  0.96634786    -0.13700
F2289       F  0.99889815  0.52847939  0.93885670    -0.16000
F2290       F  0.93213219  0.45268872  0.92028687    -0.14500
F2291       F  0.97748994  0.49334135  0.85846772    -0.14500
F2292       F  0.87510756  0.48573543  0.85759588    -0.16000
C2293       C  0.82538677  0.62504059  0.77771019     0.14100
C2294       C  0.81017200  0.63323810  0.75793086     0.01100
C2295       C  0.80567987  0.61664874  0.73793085     0.16000
C2296       C  0.81567439  0.59239012  0.73805248     0.25500
C2297       C  0.83105519  0.58439058  0.75777261    -0.40900
C2298       C  0.83611428  0.60122200  0.77734465     0.32500
C2299       C  0.79876192  0.65879836  0.75838019     0.01100
F2300       F  0.79228043  0.62419134  0.71779094    -0.13200
F2301       F  0.85115621  0.59439144  0.79655945    -0.13700
C2302       C  0.81319846  0.68021085  0.76372909     0.16100
C2303       C  0.80222401  0.70401078  0.76427198     0.25500
C2304       C  0.77687891  0.70709973  0.75825192    -0.40800
C2305       C  0.76243911  0.68576480  0.75325517     0.32400
C2306       C  0.77310318  0.66194702  0.75372183     0.14100
F2307       F  0.83813204  0.67826210  0.76765241    -0.13200
F2308       F  0.73795997  0.68807268  0.74717665    -0.13700
F2309       F  0.81648290  0.72408118  0.77014205    -0.16000
F2310       F  0.75818597  0.64189141  0.74971402    -0.14500
F2311       F  0.82957320  0.63992665  0.79776339    -0.14500
F2312       F  0.81138731  0.57723198  0.71822011    -0.16000
C2313       C  0.72363117  0.15800233  0.74656039     0.14100
C2314       C  0.70070374  0.15404093  0.75868166     0.01100
C2315       C  0.68847534  0.17472348  0.76942696     0.16000
C2316       C  0.69903844  0.19871292  0.76815546     0.25500
C2317       C  0.72186012  0.20252627  0.75585189    -0.40900
C2318       C  0.73401291  0.18192783  0.74514007     0.32500
C2319       C  0.68972708  0.12838356  0.75996067     0.01100
F2320       F  0.66602993  0.17179014  0.78072420    -0.13200
F2321       F  0.75612472  0.18505322  0.73323559    -0.13700
C2322       C  0.68308301  0.11763469  0.78300938     0.16100
C2323       C  0.67240710  0.09370489  0.78402644     0.25500
C2324       C  0.66905652  0.07963223  0.76213814    -0.40800
C2325       C  0.67627490  0.09007901  0.73919325     0.32400
C2326       C  0.68609207  0.11429601  0.73806011     0.14100
F2327       F  0.68711321  0.13024852  0.80459457    -0.13200
F2328       F  0.67240567  0.07736719  0.71761698    -0.13700
F2329       F  0.66541554  0.08423088  0.80642072    -0.16000
F2330       F  0.69113455  0.12436292  0.71538686    -0.14500
F2331       F  0.73625490  0.13856469  0.73639170    -0.14500
F2332       F  0.68703247  0.21810697  0.77904800    -0.16000
C2333       C  0.76421172  0.20163917  0.88947825     0.14100
C2334       C  0.76291994  0.18750526  0.86729881     0.01100
C2335       C  0.76174634  0.16138534  0.86926033     0.16000
C2336       C  0.76173304  0.14967106  0.89265083     0.25500
C2337       C  0.76263975  0.16374158  0.91490288    -0.40900
C2338       C  0.76387832  0.18991664  0.91299475     0.32500
C2339       C  0.76157790  0.19980599  0.84218759     0.01100
F2340       F  0.75950660  0.14712526  0.84844860    -0.13200
F2341       F  0.76490040  0.20419595  0.93388043    -0.13700
C2342       C  0.77819718  0.19321290  0.82286654     0.16100
C2343       C  0.77587730  0.20376831  0.79893673     0.25500
C2344       C  0.75716060  0.22143547  0.79392522    -0.40800
C2345       C  0.74080386  0.22824130  0.81325079     0.32400
C2346       C  0.74284263  0.21745974  0.83700211     0.14100
F2347       F  0.79685527  0.17667234  0.82723393    -0.13200
F2348       F  0.72276836  0.24551255  0.80907017    -0.13700
F2349       F  0.79174514  0.19653991  0.78063013    -0.16000
F2350       F  0.72601750  0.22382909  0.85479080    -0.14500
F2351       F  0.76592414  0.22686622  0.88838264    -0.14500
F2352       F  0.75957646  0.12445785  0.89343320    -0.16000
C2353       C  0.67572832  0.22965150  0.68582937     0.14100
C2354       C  0.65478469  0.24018181  0.69778370     0.01100
C2355       C  0.65815585  0.25151680  0.72123609     0.16000
C2356       C  0.68171223  0.25210808  0.73253177     0.25500
C2357       C  0.70244971  0.24108264  0.72091496    -0.40900
C2358       C  0.69931852  0.22997054  0.69737371     0.32500
C2359       C  0.62939836  0.23925450  0.68614130     0.01100
F2360       F  0.63852694  0.26187609  0.73339817    -0.13200
F2361       F  0.71915491  0.21978335  0.68544124    -0.13700
C2362       C  0.61876349  0.21636577  0.67874752     0.16100
C2363       C  0.59463767  0.21546960  0.66847928     0.25500
C2364       C  0.58036919  0.23731034  0.66609662    -0.40800
C2365       C  0.59093333  0.26017769  0.67347238     0.32400
C2366       C  0.61526379  0.26119250  0.68306082     0.14100
F2367       F  0.63161268  0.19478312  0.68181808    -0.13200
F2368       F  0.57814423  0.28178459  0.67012430    -0.13700
F2369       F  0.58509335  0.19322451  0.66107281    -0.16000
F2370       F  0.62531413  0.28376882  0.68860380    -0.14500
F2371       F  0.67346915  0.21966104  0.66267171    -0.14500
F2372       F  0.68443330  0.26395548  0.75475776    -0.16000
C2373       C  0.73213839  0.29575464  0.60623130     0.14100
C2374       C  0.73421154  0.30942501  0.62864068     0.01100
C2375       C  0.73690168  0.33543670  0.62721415     0.16000
C2376       C  0.73767393  0.34751362  0.60410938     0.25500
C2377       C  0.73631499  0.33387677  0.58160599    -0.40900
C2378       C  0.73354053  0.30781833  0.58295958     0.32500
C2379       C  0.73529388  0.29673704  0.65345950     0.01100
F2380       F  0.73997182  0.34918378  0.64827114    -0.13200
F2381       F  0.73208720  0.29400937  0.56182033    -0.13700
C2382       C  0.75310124  0.27798632  0.65793738     0.16100
C2383       C  0.75552299  0.26732061  0.68165209     0.25500
C2384       C  0.74057499  0.27543122  0.70158271    -0.40800
C2385       C  0.72258638  0.29395378  0.69722569     0.32400
C2386       C  0.71982059  0.30438408  0.67333627     0.14100
F2387       F  0.76874250  0.27048571  0.63951389    -0.13200
F2388       F  0.70776985  0.30195222  0.71609682    -0.13700
F2389       F  0.77249206  0.24886537  0.68519796    -0.16000
F2390       F  0.70193438  0.32190100  0.66957667    -0.14500
F2391       F  0.72872014  0.27068410  0.60686987    -0.14500
F2392       F  0.74103315  0.37261234  0.60387884    -0.16000
C2393       C  0.79747797  0.38975923  0.73562547     0.14100
C2394       C  0.81103136  0.36757907  0.73978605     0.01100
C2395       C  0.83662098  0.36951400  0.74537120     0.16000
C2396       C  0.84846565  0.39284932  0.74625085     0.25500
C2397       C  0.83496013  0.41503752  0.74213842    -0.40900
C2398       C  0.80921979  0.41320835  0.73712798     0.32500
C2399       C  0.79850600  0.34253068  0.73909123     0.01100
F2400       F  0.85008772  0.34877425  0.75080601    -0.13200
F2401       F  0.79556686  0.43408533  0.73282323    -0.13700
C2402       C  0.80795887  0.32292286  0.72423661     0.16100
C2403       C  0.79689716  0.29910447  0.72470821     0.25500
C2404       C  0.77595192  0.29452235  0.73975128    -0.40800
C2405       C  0.76620307  0.31415799  0.75410822     0.32400
C2406       C  0.77741713  0.33777678  0.75397739     0.14100
F2407       F  0.82786414  0.32688135  0.70913618    -0.13200
F2408       F  0.74593509  0.31022402  0.76874088    -0.13700
F2409       F  0.80679853  0.28051845  0.71070127    -0.16000
F2410       F  0.76812997  0.35578043  0.76914428    -0.14500
F2411       F  0.77289063  0.38871835  0.72964140    -0.14500
F2412       F  0.87310301  0.39375274  0.75207507    -0.16000
C2413       C  0.56854950  0.88442225  0.78584268     0.14100
C2414       C  0.54273619  0.88760851  0.78766223     0.01100
C2415       C  0.53199724  0.91082190  0.78208874     0.16000
C2416       C  0.54720648  0.93082110  0.77490626     0.25500
C2417       C  0.57327055  0.92780972  0.77397608    -0.40900
C2418       C  0.58370778  0.90427019  0.77923402     0.32500
C2419       C  0.52857562  0.86763596  0.79974038     0.01100
F2420       F  0.50702742  0.91424788  0.78434839    -0.13200
F2421       F  0.60870705  0.90032519  0.77821430    -0.13700
C2422       C  0.52593155  0.86882090  0.82564430     0.16100
C2423       C  0.52147791  0.84722119  0.83923829     0.25500
C2424       C  0.51862315  0.82408121  0.82701933    -0.40800
C2425       C  0.51905971  0.82334627  0.80079134     0.32400
C2426       C  0.52441198  0.84500400  0.78723705     0.14100
F2427       F  0.53002589  0.89058067  0.83797943    -0.13200
F2428       F  0.51597013  0.80148629  0.78840877    -0.13700
F2429       F  0.52082636  0.84897366  0.86448171    -0.16000
F2430       F  0.52718708  0.84364690  0.76211000    -0.14500
F2431       F  0.57924035  0.86227051  0.79194326    -0.14500
F2432       F  0.53661937  0.95326463  0.76991478    -0.16000
C2433       C  0.59527712  0.70551505  0.95499834     0.14100
C2434       C  0.61805782  0.71663974  0.94832971     0.01100
C2435       C  0.61843634  0.73595765  0.93079800     0.16000
C2436       C  0.59650616  0.74283005  0.91863828     0.25500
C2437       C  0.57400106  0.73057206  0.92409014    -0.40900
C2438       C  0.57321568  0.71267236  0.94306765     0.32500
C2439       C  0.64152447  0.70440836  0.95521899     0.01100
F2440       F  0.64035657  0.74660881  0.92395539    -0.13200
F2441       F  0.55154418  0.70089782  0.94868206    -0.13700
C2442       C  0.64891060  0.68349988  0.94152736     0.16100
C2443       C  0.66997222  0.67014889  0.94848665     0.25500
C2444       C  0.68395095  0.67726621  0.96965274    -0.40800
C2445       C  0.67742130  0.69934446  0.98239281     0.32400
C2446       C  0.65623623  0.71286202  0.97512718     0.14100
F2447       F  0.63514074  0.67554926  0.92177164    -0.13200
F2448       F  0.69062335  0.70711323  0.00256330    -0.13700
F2449       F  0.67599349  0.64959407  0.93495336    -0.16000
F2450       F  0.64953755  0.73357795  0.98802909    -0.14500
F2451       F  0.59479771  0.68641564  0.97160110    -0.14500
F2452       F  0.59748934  0.76047689  0.90052229    -0.16000
C2453       C  0.47817844  0.62817482  0.81933747     0.14100
C2454       C  0.47452000  0.63117279  0.79366141     0.01100
C2455       C  0.47846419  0.65459641  0.78262583     0.16000
C2456       C  0.48437870  0.67522413  0.79753047     0.25500
C2457       C  0.48558197  0.67261468  0.82361783    -0.40900
C2458       C  0.48327241  0.64874012  0.83426866     0.32500
C2459       C  0.45967254  0.61208326  0.78087855     0.01100
F2460       F  0.47489236  0.65773577  0.75774924    -0.13200
F2461       F  0.48516037  0.64533450  0.85930337    -0.13700
C2462       C  0.43388822  0.61593306  0.77973576     0.16100
C2463       C  0.41793029  0.59620201  0.77465619     0.25500
C2464       C  0.42750629  0.57224881  0.76979364    -0.40800
C2465       C  0.45353530  0.56866522  0.76950020     0.32400
C2466       C  0.46954874  0.58846345  0.77541512     0.14100
F2467       F  0.42402161  0.63853137  0.78555227    -0.13200
F2468       F  0.46336215  0.54579387  0.76491482    -0.13700
F2469       F  0.39300817  0.60058334  0.77508063    -0.16000
F2470       F  0.49449309  0.58439909  0.77690337    -0.14500
F2471       F  0.47432972  0.60566109  0.83028025    -0.14500
F2472       F  0.48716849  0.69792571  0.78669439    -0.16000
C2473       C  0.53533449  0.62719762  0.92676672     0.14100
C2474       C  0.51402302  0.61780725  0.93894654     0.01100
C2475       C  0.49267355  0.63309738  0.94019252     0.16000
C2476       C  0.49260213  0.65704600  0.92961282     0.25500
C2477       C  0.51371505  0.66626305  0.91703974    -0.40900
C2478       C  0.53508266  0.65100972  0.91570838     0.32500
C2479       C  0.51383066  0.59222775  0.95035946     0.01100
F2480       F  0.47140305  0.62444480  0.95082767    -0.13200
F2481       F  0.55583199  0.65923257  0.90379233    -0.13700
C2482       C  0.50634565  0.58891081  0.97531789     0.16100
C2483       C  0.50466204  0.56500986  0.98573528     0.25500
C2484       C  0.51084131  0.54374002  0.97172557    -0.40800
C2485       C  0.51911216  0.54693164  0.94702024     0.32400
C2486       C  0.52034840  0.57089111  0.93636343     0.14100
F2487       F  0.50064813  0.60890927  0.98974556    -0.13200
F2488       F  0.52586440  0.52689783  0.93313918    -0.13700
F2489       F  0.49642136  0.56253921  0.00954204    -0.16000
F2490       F  0.52715408  0.57312971  0.91209234    -0.14500
F2491       F  0.55653040  0.61339603  0.92574848    -0.14500
F2492       F  0.47126438  0.67064584  0.93039817    -0.16000
C2493       C  0.67679435  0.76740172  0.81137020     0.14100
C2494       C  0.65522469  0.76224196  0.79719015     0.01100
C2495       C  0.65799629  0.75711965  0.77156989     0.16000
C2496       C  0.68170517  0.75646708  0.76061290     0.25500
C2497       C  0.70324974  0.76139231  0.77483237    -0.40900
C2498       C  0.70045390  0.76752192  0.80020047     0.32500
C2499       C  0.62995125  0.76204842  0.80904957     0.01100
F2500       F  0.63769320  0.75275310  0.75704607    -0.13200
F2501       F  0.72068270  0.77321733  0.81431895    -0.13700
C2502       C  0.62179904  0.78226477  0.82373656     0.16100
C2503       C  0.59833508  0.78179659  0.83532492     0.25500
C2504       C  0.58209371  0.76148745  0.83183283    -0.40800
C2505       C  0.59007678  0.74141990  0.81686108     0.32400
C2506       C  0.61380810  0.74154894  0.80589945     0.14100
F2507       F  0.63648561  0.80266413  0.82669919    -0.13200
F2508       F  0.57545231  0.72094857  0.81393625    -0.13700
F2509       F  0.59144839  0.80130760  0.84990108    -0.16000
F2510       F  0.62136120  0.72111885  0.79298539    -0.14500
F2511       F  0.67509313  0.77150325  0.83629313    -0.14500
F2512       F  0.68368642  0.75036172  0.73611137    -0.16000
C2513       C  0.48011424  0.87328441  0.91670320     0.14100
C2514       C  0.48688635  0.87488655  0.94202938     0.01100
C2515       C  0.49208723  0.85253950  0.95492143     0.16000
C2516       C  0.49155937  0.82940036  0.94252421     0.25500
C2517       C  0.48505228  0.82787608  0.91705835    -0.40900
C2518       C  0.47860011  0.85017886  0.90459596     0.32500
C2519       C  0.48909692  0.89987987  0.95452185     0.01100
F2520       F  0.49774018  0.85304212  0.97960406    -0.13200
F2521       F  0.47183745  0.84997267  0.88018321    -0.13700
C2522       C  0.47004194  0.91787173  0.95213730     0.16100
C2523       C  0.47290634  0.94190961  0.96212738     0.25500
C2524       C  0.49422840  0.94819625  0.97614337    -0.40800
C2525       C  0.51310406  0.93012417  0.97886987     0.32400
C2526       C  0.51078277  0.90646135  0.96788458     0.14100
F2527       F  0.44843659  0.91215041  0.94021243    -0.13200
F2528       F  0.53397771  0.93545690  0.99220494    -0.13700
F2529       F  0.45499046  0.95913858  0.95756954    -0.16000
F2530       F  0.53010977  0.89021975  0.96979783    -0.14500
F2531       F  0.47604781  0.89428438  0.90316013    -0.14500
F2532       F  0.49772708  0.80853965  0.95546869    -0.16000
C2533       C  0.19118134  0.82508785  0.76972387     0.14100
C2534       C  0.20579303  0.84618902  0.76363150     0.01100
C2535       C  0.23070461  0.84219043  0.75630558     0.16000
C2536       C  0.24029186  0.81798533  0.75392882     0.25500
C2537       C  0.22583413  0.79698788  0.76012733    -0.40900
C2538       C  0.20123886  0.80082202  0.76842067     0.32500
C2539       C  0.19496392  0.87214275  0.76382075     0.01100
F2540       F  0.24590584  0.86179171  0.75129335    -0.13200
F2541       F  0.18672106  0.78104443  0.77458465    -0.13700
C2542       C  0.18128094  0.88111540  0.78441212     0.16100
C2543       C  0.17004396  0.90482638  0.78381850     0.25500
C2544       C  0.17277089  0.92057943  0.76295872    -0.40800
C2545       C  0.18731275  0.91210471  0.74282695     0.32400
C2546       C  0.19792936  0.88812535  0.74308550     0.14100
F2547       F  0.17876068  0.86694341  0.80522724    -0.13200
F2548       F  0.18989155  0.92636660  0.72207411    -0.13700
F2549       F  0.15627309  0.91235180  0.80367584    -0.16000
F2550       F  0.21007549  0.88008956  0.72238790    -0.14500
F2551       F  0.16683105  0.82782254  0.77602344    -0.14500
F2552       F  0.26353476  0.81498051  0.74441305    -0.16000
C2553       C  0.28302193  0.66061785  0.75512513     0.14100
C2554       C  0.29701785  0.65459621  0.73379779     0.01100
C2555       C  0.30040588  0.67304122  0.71534781     0.16000
C2556       C  0.29040969  0.69708204  0.71847076     0.25500
C2557       C  0.27621207  0.70291234  0.73974444    -0.40900
C2558       C  0.27253140  0.68434742  0.75790988     0.32500
C2559       C  0.30944604  0.62971552  0.73198057     0.01100
F2560       F  0.31327926  0.66772355  0.69422122    -0.13200
F2561       F  0.25848907  0.68918099  0.77839327    -0.13700
C2562       C  0.29582182  0.60740481  0.73483526     0.16100
C2563       C  0.30812758  0.58430733  0.73662865     0.25500
C2564       C  0.33432180  0.58299184  0.73523417    -0.40800
C2565       C  0.34770436  0.60524354  0.73074018     0.32400
C2566       C  0.33546043  0.62824691  0.72943307     0.14100
F2567       F  0.27054506  0.60801777  0.73604579    -0.13200
F2568       F  0.37290494  0.60503407  0.72844382    -0.13700
F2569       F  0.29439171  0.56326263  0.73959994    -0.16000
F2570       F  0.34928939  0.64929983  0.72690780    -0.14500
F2571       F  0.28006939  0.64367150  0.77369557    -0.14500
F2572       F  0.29461484  0.71463878  0.70075784    -0.16000
C2573       C  0.38217385  0.71312784  0.81706499     0.14100
C2574       C  0.37296120  0.73465662  0.80503511     0.01100
C2575       C  0.38868841  0.75571812  0.80366764     0.16000
C2576       C  0.41280914  0.75526060  0.81391420     0.25500
C2577       C  0.42164073  0.73403955  0.82659730    -0.40900
C2578       C  0.40601467  0.71299884  0.82807175     0.32500
C2579       C  0.34703642  0.73545915  0.79422992     0.01100
F2580       F  0.38026594  0.77732147  0.79350211    -0.13200
F2581       F  0.41380067  0.69228438  0.84037208    -0.13700
C2582       C  0.32606946  0.72792100  0.80828515     0.16100
C2583       C  0.30183100  0.72961339  0.79830621     0.25500
C2584       C  0.29787991  0.73951003  0.77432296    -0.40800
C2585       C  0.31873020  0.74677345  0.76021903     0.32400
C2586       C  0.34295638  0.74449288  0.76985961     0.14100
F2587       F  0.32889284  0.71961456  0.83203127    -0.13200
F2588       F  0.31555197  0.75649015  0.73704781    -0.13700
F2589       F  0.28226707  0.72161296  0.81215200    -0.16000
F2590       F  0.36250263  0.75101238  0.75518267    -0.14500
F2591       F  0.36812786  0.69210911  0.81818109    -0.14500
F2592       F  0.42687608  0.77628547  0.81291722    -0.16000
C2593       C  0.19284991  0.56311535  0.40223239     0.14100
C2594       C  0.21094848  0.55111070  0.38765011     0.01100
C2595       C  0.23553616  0.54916610  0.39637164     0.16000
C2596       C  0.24234774  0.56107669  0.41855234     0.25500
C2597       C  0.22462401  0.57525006  0.43173183    -0.40900
C2598       C  0.19977074  0.57568844  0.42372025     0.32500
C2599       C  0.20417086  0.54361487  0.36223500     0.01100
F2600       F  0.25321850  0.53751297  0.38251512    -0.13200
F2601       F  0.18248487  0.58969153  0.43569515    -0.13700
C2602       C  0.19365735  0.56158118  0.34633574     0.16100
C2603       C  0.18074375  0.55420604  0.32514231     0.25500
C2604       C  0.17968935  0.52894342  0.31864797    -0.40800
C2605       C  0.19264279  0.51121183  0.33303739     0.32400
C2606       C  0.20456866  0.51850095  0.35503788     0.14100
F2607       F  0.19416471  0.58614361  0.35252715    -0.13200
F2608       F  0.19143429  0.48658374  0.32727438    -0.13700
F2609       F  0.16791885  0.57156012  0.31197069    -0.16000
F2610       F  0.21451997  0.50089835  0.37028290    -0.14500
F2611       F  0.16870295  0.56418375  0.39460153    -0.14500
F2612       F  0.26666295  0.56094865  0.42567933    -0.16000
C2613       C  0.26255068  0.55463715  0.60969238     0.14100
C2614       C  0.28807025  0.55158187  0.61462205     0.01100
C2615       C  0.30569187  0.55932391  0.59694065     0.16000
C2616       C  0.29812946  0.57208800  0.57572524     0.25500
C2617       C  0.27274240  0.57589985  0.57092966    -0.40900
C2618       C  0.25487707  0.56649688  0.58768991     0.32500
C2619       C  0.29711046  0.54360143  0.63925334     0.01100
F2620       F  0.33045863  0.55600549  0.60115434    -0.13200
F2621       F  0.23022432  0.57093564  0.58394298    -0.13700
C2622       C  0.29463722  0.51882310  0.64724089     0.16100
C2623       C  0.30793992  0.51053210  0.66815642     0.25500
C2624       C  0.32426715  0.52686232  0.68069793    -0.40800
C2625       C  0.32578505  0.55184591  0.67316240     0.32400
C2626       C  0.31174005  0.56030426  0.65311159     0.14100
F2627       F  0.28094891  0.50232842  0.63374435    -0.13200
F2628       F  0.34195351  0.56781209  0.68423114    -0.13700
F2629       F  0.30672910  0.48608885  0.67463751    -0.16000
F2630       F  0.31380631  0.58452615  0.64601487    -0.14500
F2631       F  0.24530756  0.54786911  0.62692482    -0.14500
F2632       F  0.31576136  0.58205840  0.56074782    -0.16000
C2633       C  0.34508762  0.68795934  0.43835257     0.14100
C2634       C  0.35700990  0.70587717  0.45323906     0.01100
C2635       C  0.34794804  0.71093695  0.47727304     0.16000
C2636       C  0.32768779  0.69743873  0.48665744     0.25500
C2637       C  0.31668396  0.67853290  0.47213632    -0.40900
C2638       C  0.32521768  0.67436662  0.44772101     0.32500
C2639       C  0.37979047  0.71777516  0.44372261     0.01100
F2640       F  0.35916580  0.72837783  0.49181114    -0.13200
F2641       F  0.31502816  0.65632285  0.43316174    -0.13700
C2642       C  0.37888487  0.73039488  0.42086630     0.16100
C2643       C  0.40083955  0.73673377  0.40869857     0.25500
C2644       C  0.42408220  0.73106740  0.41946092    -0.40800
C2645       C  0.42511078  0.71994636  0.44310005     0.32400
C2646       C  0.40298167  0.71309829  0.45513234     0.14100
F2647       F  0.35666607  0.73527495  0.40967223    -0.13200
F2648       F  0.44740248  0.71408733  0.45359056    -0.13700
F2649       F  0.39936816  0.74778363  0.38596183    -0.16000
F2650       F  0.40420537  0.70026628  0.47692414    -0.14500
F2651       F  0.35366170  0.68252625  0.41514975    -0.14500
F2652       F  0.32005409  0.70162316  0.51043031    -0.16000
C2653       C  0.42131322  0.55241324  0.52942738     0.14100
C2654       C  0.40344832  0.54802669  0.51063123     0.01100
C2655       C  0.40981624  0.53255625  0.49048475     0.16000
C2656       C  0.43356024  0.52176762  0.48907812     0.25500
C2657       C  0.45146369  0.52602914  0.50788058    -0.40900
C2658       C  0.44509906  0.54150501  0.52809337     0.32500
C2659       C  0.37875696  0.56076491  0.51117337     0.01100
F2660       F  0.39323068  0.52846076  0.47176278    -0.13200
F2661       F  0.46192724  0.54619027  0.54642605    -0.13700
C2662       C  0.37759631  0.58687589  0.51001741     0.16100
C2663       C  0.35459128  0.59917587  0.50977951     0.25500
C2664       C  0.33203384  0.58562939  0.51037728    -0.40800
C2665       C  0.33316445  0.55940528  0.51135390     0.32400
C2666       C  0.35632610  0.54710304  0.51191412     0.14100
F2667       F  0.39885848  0.60051263  0.50830198    -0.13200
F2668       F  0.31189164  0.54572429  0.51240841    -0.13700
F2669       F  0.35448166  0.62443801  0.50807665    -0.16000
F2670       F  0.35687498  0.52184986  0.51348613    -0.14500
F2671       F  0.41565011  0.56726272  0.54912661    -0.14500
F2672       F  0.43912117  0.50698289  0.46928658    -0.16000
C2673       C  0.07527268  0.55569236  0.46958150     0.14100
C2674       C  0.09328281  0.55117828  0.48830147     0.01100
C2675       C  0.08660242  0.53596974  0.50862462     0.16000
C2676       C  0.06288742  0.52512304  0.50987672     0.25500
C2677       C  0.04481013  0.53001820  0.49147444    -0.40900
C2678       C  0.05112696  0.54572966  0.47148438     0.32500
C2679       C  0.11854868  0.56307082  0.48724655     0.01100
F2680       F  0.10280935  0.53209143  0.52771188    -0.13200
F2681       F  0.03387099  0.55182276  0.45401611    -0.13700
C2682       C  0.12084530  0.58879695  0.48280695     0.16100
C2683       C  0.14427449  0.60021741  0.48231563     0.25500
C2684       C  0.16615965  0.58660058  0.48790527    -0.40800
C2685       C  0.16396732  0.56077504  0.49204953     0.32400
C2686       C  0.14049683  0.54908756  0.49130217     0.14100
F2687       F  0.10026780  0.60327079  0.47989774    -0.13200
F2688       F  0.18452735  0.54673202  0.49661793    -0.13700
F2689       F  0.14525099  0.62493103  0.47692970    -0.16000
F2690       F  0.13927190  0.52401130  0.49445580    -0.14500
F2691       F  0.08108524  0.56961603  0.44926585    -0.14500
F2692       F  0.05749389  0.50973432  0.52923197    -0.16000
C2693       C  0.24360069  0.72742489  0.65881287     0.14100
C2694       C  0.23734387  0.70216610  0.65569995     0.01100
C2695       C  0.23143388  0.68787199  0.67694807     0.16000
C2696       C  0.23203275  0.69862892  0.70083248     0.25500
C2697       C  0.23908921  0.72371243  0.70388974    -0.40900
C2698       C  0.24457768  0.73801597  0.68261871     0.32500
C2699       C  0.23754524  0.69078263  0.63033893     0.01100
F2700       F  0.22605207  0.66324642  0.67465529    -0.13200
F2701       F  0.25195352  0.76211427  0.68503661    -0.13700
C2702       C  0.25919742  0.69176237  0.61553788     0.16100
C2703       C  0.25945487  0.68117484  0.59164442     0.25500
C2704       C  0.23817320  0.66912186  0.58215101    -0.40800
C2705       C  0.21652217  0.66811327  0.59689821     0.32400
C2706       C  0.21615040  0.67900840  0.62069582     0.14100
F2707       F  0.28044673  0.70215901  0.62461114    -0.13200
F2708       F  0.19568956  0.65663290  0.58819883    -0.13700
F2709       F  0.28100329  0.68139839  0.57836828    -0.16000
F2710       F  0.19482752  0.67820849  0.63428891    -0.14500
F2711       F  0.24902695  0.74184961  0.63873791    -0.14500
F2712       F  0.22642488  0.68439587  0.72098072    -0.16000
C2713       C  0.34276712  0.75723621  0.27108626     0.14100
C2714       C  0.34660906  0.76704599  0.29514669     0.01100
C2715       C  0.32568192  0.77560850  0.30865279     0.16000
C2716       C  0.30149444  0.77341401  0.29863959     0.25500
C2717       C  0.29779370  0.76212021  0.27525690    -0.40900
C2718       C  0.31868501  0.75437686  0.26151733     0.32500
C2719       C  0.37215769  0.76647220  0.30648289     0.01100
F2720       F  0.32850339  0.78528950  0.33187766    -0.13200
F2721       F  0.31566635  0.74354318  0.23881627    -0.13700
C2722       C  0.38288445  0.78772081  0.31767663     0.16100
C2723       C  0.40654268  0.78636259  0.32896803     0.25500
C2724       C  0.42034155  0.76402823  0.32851066    -0.40800
C2725       C  0.40984880  0.74298778  0.31692956     0.32400
C2726       C  0.38596031  0.74409243  0.30638884     0.14100
F2727       F  0.37054709  0.80982023  0.31763608    -0.13200
F2728       F  0.42199959  0.72078253  0.31734814    -0.13700
F2729       F  0.41595086  0.80685208  0.34050618    -0.16000
F2730       F  0.37581560  0.72284247  0.29705621    -0.14500
F2731       F  0.36243679  0.75017124  0.25681796    -0.14500
F2732       F  0.28177371  0.78219093  0.31180235    -0.16000
C2733       C  0.29728875  0.89197641  0.23283083     0.14100
C2734       C  0.31138127  0.86980200  0.23362892     0.01100
C2735       C  0.33745448  0.87145414  0.23534261     0.16000
C2736       C  0.34916952  0.89467654  0.23687012     0.25500
C2737       C  0.33505340  0.91691225  0.23714889    -0.40900
C2738       C  0.30899283  0.91531264  0.23478528     0.32500
C2739       C  0.29892151  0.84501906  0.23466515     0.01100
F2740       F  0.35161407  0.85050428  0.23675820    -0.13200
F2741       F  0.29487665  0.93630189  0.23407524    -0.13700
C2742       C  0.30544972  0.82570544  0.21804763     0.16100
C2743       C  0.29473075  0.80195795  0.22040457     0.25500
C2744       C  0.27705022  0.79728889  0.23913690    -0.40800
C2745       C  0.27036706  0.81660692  0.25550366     0.32400
C2746       C  0.28132878  0.84013308  0.25345557     0.14100
F2747       F  0.32228472  0.82980455  0.19961371    -0.13200
F2748       F  0.25338343  0.81249952  0.27380938    -0.13700
F2749       F  0.30207056  0.78343362  0.20483309    -0.16000
F2750       F  0.27542816  0.85792018  0.27047894    -0.14500
F2751       F  0.27212367  0.89098930  0.23024524    -0.14500
F2752       F  0.37439039  0.89524103  0.23920426    -0.16000
C2753       C  0.22462261  0.66118934  0.24340298     0.14100
C2754       C  0.20540970  0.65599411  0.26046308     0.01100
C2755       C  0.19765543  0.67502477  0.27693984     0.16000
C2756       C  0.20848265  0.69882889  0.27590645     0.25500
C2757       C  0.22758133  0.70383504  0.25878492    -0.40900
C2758       C  0.23583273  0.68471831  0.24288225     0.32500
C2759       C  0.19278729  0.63118177  0.26023630     0.01100
F2760       F  0.17946280  0.67060799  0.29395014    -0.13200
F2761       F  0.25443389  0.68913330  0.22629740    -0.13700
C2762       C  0.20657161  0.60881461  0.26167830     0.16100
C2763       C  0.19451638  0.58555005  0.26057313     0.25500
C2764       C  0.16838855  0.58420452  0.25854230    -0.40800
C2765       C  0.15467484  0.60665968  0.25758970     0.32400
C2766       C  0.16673253  0.62975103  0.25793978     0.14100
F2767       F  0.23171848  0.60949627  0.26454257    -0.13200
F2768       F  0.12942834  0.60640501  0.25573054    -0.13700
F2769       F  0.20831404  0.56440799  0.26232042    -0.16000
F2770       F  0.15287096  0.65078054  0.25526955    -0.14500
F2771       F  0.23185510  0.64381099  0.22647491    -0.14500
F2772       F  0.19993981  0.71710000  0.29117236    -0.16000
C2773       C  0.27749784  0.69451500  0.32486744     0.14100
C2774       C  0.26377380  0.70446041  0.34501921     0.01100
C2775       C  0.24917508  0.72585937  0.34083521     0.16000
C2776       C  0.24781452  0.73663701  0.31704040     0.25500
C2777       C  0.26103407  0.72636511  0.29685401    -0.40900
C2778       C  0.27617754  0.70542587  0.30102252     0.32500
C2779       C  0.26340647  0.69177577  0.36992200     0.01100
F2780       F  0.23538370  0.73577492  0.35959490    -0.13200
F2781       F  0.28945174  0.69543721  0.28194815    -0.13700
C2782       C  0.26958294  0.70467352  0.39204339     0.16100
C2783       C  0.26781999  0.69286718  0.41545619     0.25500
C2784       C  0.26049666  0.66772779  0.41716162    -0.40800
C2785       C  0.25447301  0.65487156  0.39501707     0.32400
C2786       C  0.25567018  0.66679414  0.37178224     0.14100
F2787       F  0.27765022  0.72863504  0.39093857    -0.13200
F2788       F  0.24640765  0.63088540  0.39593088    -0.13700
F2789       F  0.27382849  0.70582551  0.43636508    -0.16000
F2790       F  0.24839766  0.65410560  0.35109194    -0.14500
F2791       F  0.29217723  0.67418695  0.32829674    -0.14500
F2792       F  0.23308493  0.75693124  0.31351868    -0.16000
C2793       C  0.90672269  0.71323243  0.04567804     0.14100
C2794       C  0.88381288  0.71248307  0.05847767     0.01100
C2795       C  0.88201730  0.72294582  0.08234566     0.16000
C2796       C  0.90309311  0.73240432  0.09403457     0.25500
C2797       C  0.92636696  0.73179079  0.08197921    -0.40900
C2798       C  0.92796311  0.72308501  0.05736793     0.32500
C2799       C  0.86227547  0.69872819  0.04837347     0.01100
F2800       F  0.85996077  0.72300258  0.09478325    -0.13200
F2801       F  0.95025572  0.72251680  0.04542231    -0.13700
C2802       C  0.85281671  0.67831287  0.06170826     0.16100
C2803       C  0.83225115  0.66523647  0.05280024     0.25500
C2804       C  0.82081870  0.67214218  0.03013857    -0.40800
C2805       C  0.83002130  0.69296682  0.01704126     0.32400
C2806       C  0.85070223  0.70610070  0.02609552     0.14100
F2807       F  0.86393082  0.67065083  0.08317354    -0.13200
F2808       F  0.81971351  0.70003133  0.99501959    -0.13700
F2809       F  0.82381955  0.64551709  0.06626999    -0.16000
F2810       F  0.85946652  0.72598908  0.01314755    -0.14500
F2811       F  0.90884085  0.70299207  0.02262550    -0.14500
F2812       F  0.90089566  0.74146922  0.11759528    -0.16000
C2813       C  0.07207989  0.61226887  0.20668864     0.14100
C2814       C  0.04630240  0.61117941  0.21017740     0.01100
C2815       C  0.03535729  0.58973407  0.22037043     0.16000
C2816       C  0.05044952  0.56965259  0.22767150     0.25500
C2817       C  0.07647508  0.57077002  0.22413618    -0.40900
C2818       C  0.08699955  0.59227138  0.21323698     0.32500
C2819       C  0.03156773  0.63158616  0.19968533     0.01100
F2820       F  0.01022301  0.58814878  0.22284445    -0.13200
F2821       F  0.11186159  0.59425197  0.20887378    -0.13700
C2822       C  0.02617269  0.63052427  0.17419777     0.16100
C2823       C  0.02154670  0.65232284  0.16101674     0.25500
C2824       C  0.02132624  0.67554091  0.17331808    -0.40800
C2825       C  0.02441694  0.67632149  0.19934749     0.32400
C2826       C  0.03002487  0.65442640  0.21241810     0.14100
F2827       F  0.02793168  0.60860061  0.16161750    -0.13200
F2828       F  0.02375518  0.69835341  0.21178032    -0.13700
F2829       F  0.01813556  0.65069721  0.13599110    -0.16000
F2830       F  0.03585590  0.65571044  0.23703564    -0.14500
F2831       F  0.08275682  0.63263106  0.19604830    -0.14500
F2832       F  0.03962741  0.54903048  0.23756274    -0.16000
C2833       C  0.99191361  0.64433530  0.04675112     0.14100
C2834       C  0.98505647  0.62244729  0.05973867     0.01100
C2835       C  0.97709471  0.62502793  0.08464582     0.16000
C2836       C  0.97657559  0.64844719  0.09632278     0.25500
C2837       C  0.98527088  0.67007676  0.08398314    -0.40900
C2838       C  0.99248701  0.66769029  0.05881255     0.32500
C2839       C  0.98732975  0.59697946  0.04790415     0.01100
F2840       F  0.97098240  0.60466342  0.09836525    -0.13200
F2841       F  0.00058155  0.68786114  0.04586661    -0.13700
C2842       C  0.00922991  0.59006135  0.03508319     0.16100
C2843       C  0.01169001  0.56625879  0.02442042     0.25500
C2844       C  0.99287854  0.54813084  0.02712550    -0.40800
C2845       C  0.97135938  0.55464078  0.04069753     0.32400
C2846       C  0.96827121  0.57891136  0.05022943     0.14100
F2847       F  0.02870425  0.60613215  0.03336443    -0.13200
F2848       F  0.95348105  0.53741155  0.04533442    -0.13700
F2849       F  0.03266519  0.56088216  0.01132612    -0.16000
F2850       F  0.94638899  0.58474989  0.06150506    -0.14500
F2851       F  0.99822667  0.64317808  0.02227231    -0.14500
F2852       F  0.96847790  0.64955137  0.12028557    -0.16000
C2853       C  0.88975866  0.74144710  0.19728171     0.14100
C2854       C  0.87280274  0.76108646  0.19298961     0.01100
C2855       C  0.88062706  0.78155391  0.17861324     0.16000
C2856       C  0.90445498  0.78195585  0.16799739     0.25500
C2857       C  0.92141608  0.76231287  0.17223929    -0.40900
C2858       C  0.91389252  0.74218357  0.18724641     0.32500
C2859       C  0.84701249  0.76014661  0.20337938     0.01100
F2860       F  0.86522429  0.80131094  0.17494759    -0.13200
F2861       F  0.92932662  0.72246087  0.19095056    -0.13700
C2862       C  0.84326473  0.75568386  0.22892864     0.16100
C2863       C  0.81915911  0.75369773  0.23861590     0.25500
C2864       C  0.79811749  0.75701456  0.22324168    -0.40800
C2865       C  0.80177550  0.76241854  0.19781490     0.32400
C2866       C  0.82598022  0.76347312  0.18788736     0.14100
F2867       F  0.86301570  0.75337273  0.24463338    -0.13200
F2868       F  0.78198711  0.76639523  0.18252697    -0.13700
F2869       F  0.81632125  0.74800804  0.26311830    -0.16000
F2870       F  0.82884564  0.76709367  0.16299187    -0.14500
F2871       F  0.88261852  0.72099626  0.21036386    -0.14500
F2872       F  0.91106318  0.80176138  0.15367845    -0.16000
C2873       C  0.11096519  0.72902567  0.20278350     0.14100
C2874       C  0.13321847  0.73157631  0.18889157     0.01100
C2875       C  0.13121353  0.73495797  0.16291222     0.16000
C2876       C  0.10784170  0.73628679  0.15127302     0.25500
C2877       C  0.08562963  0.73505580  0.16528611    -0.40900
C2878       C  0.08748327  0.73128288  0.19119737     0.32500
C2879       C  0.15829960  0.73276345  0.20144249     0.01100
F2880       F  0.15189980  0.73835883  0.14874902    -0.13200
F2881       F  0.06658551  0.72966185  0.20533783    -0.13700
C2882       C  0.17914611  0.71970279  0.19190206     0.16100
C2883       C  0.20308477  0.72332063  0.20206223     0.25500
C2884       C  0.20648819  0.73909162  0.22270527    -0.40800
C2885       C  0.18567904  0.75121295  0.23290995     0.32400
C2886       C  0.16201688  0.74852698  0.22217793     0.14100
F2887       F  0.17637407  0.70331239  0.17279853    -0.13200
F2888       F  0.18844603  0.76618990  0.25315091    -0.13700
F2889       F  0.22289380  0.71156947  0.19162568    -0.16000
F2890       F  0.14294295  0.76224714  0.23154763    -0.14500
F2891       F  0.11190144  0.72435020  0.22765495    -0.14500
F2892       F  0.10706631  0.74024378  0.12626532    -0.16000
C2893       C  0.14360041  0.80139651  0.01472037     0.14100
C2894       C  0.13662487  0.80201652  0.03995047     0.01100
C2895       C  0.15275445  0.81289747  0.05755551     0.16000
C2896       C  0.17406202  0.82538168  0.04982497     0.25500
C2897       C  0.18075207  0.82553745  0.02459096    -0.40900
C2898       C  0.16580450  0.81283718  0.00711128     0.32500
C2899       C  0.11164113  0.79398761  0.04818808     0.01100
F2900       F  0.14707631  0.81262149  0.08224217    -0.13200
F2901       F  0.17146575  0.81354375  0.98244095    -0.13700
C2902       C  0.10348709  0.76925224  0.04528019     0.16100
C2903       C  0.08205713  0.76104817  0.05777113     0.25500
C2904       C  0.06916376  0.77736198  0.07376421    -0.40800
C2905       C  0.07668854  0.80236412  0.07543553     0.32400
C2906       C  0.09710317  0.81079371  0.06200850     0.14100
F2907       F  0.11726874  0.75264365  0.03206967    -0.13200
F2908       F  0.06546472  0.81833044  0.09147619    -0.13700
F2909       F  0.07551610  0.73663458  0.05634327    -0.16000
F2910       F  0.10385804  0.83512901  0.06402792    -0.14500
F2911       F  0.12818650  0.79130501  0.99732766    -0.14500
F2912       F  0.18742192  0.83839499  0.06690076    -0.16000
C2913       C  0.36441098  0.80637260  0.98185741     0.14100
C2914       C  0.36133600  0.78994221  0.96176932     0.01100
C2915       C  0.33724255  0.78504851  0.95260347     0.16000
C2916       C  0.31679984  0.79846693  0.96174565     0.25500
C2917       C  0.32050600  0.81722184  0.97959085    -0.40900
C2918       C  0.34397999  0.81966116  0.99097520     0.32500
C2919       C  0.38337592  0.78200505  0.94748910     0.01100
F2920       F  0.33384712  0.76843581  0.93379048    -0.13200
F2921       F  0.34722113  0.83543595  0.01048604    -0.13700
C2922       C  0.40001633  0.76398996  0.95662739     0.16100
C2923       C  0.42130479  0.75761825  0.94286661     0.25500
C2924       C  0.42625916  0.76943896  0.91989154    -0.40800
C2925       C  0.40979700  0.78814320  0.91140291     0.32400
C2926       C  0.38856234  0.79416723  0.92499261     0.14100
F2927       F  0.39544219  0.75237232  0.97863420    -0.13200
F2928       F  0.41409578  0.80072725  0.88984992    -0.13700
F2929       F  0.43665200  0.73955105  0.95176779    -0.16000
F2930       F  0.37310416  0.81228155  0.91633590    -0.14500
F2931       F  0.38748876  0.81102283  0.99122831    -0.14500
F2932       F  0.29371592  0.79393247  0.95245626    -0.16000
C2933       C  0.31280618  0.94081059  0.15228443     0.14100
C2934       C  0.29764638  0.95740280  0.13882852     0.01100
C2935       C  0.29270471  0.98113890  0.14880416     0.16000
C2936       C  0.30475735  0.98888686  0.17075996     0.25500
C2937       C  0.32229975  0.97316637  0.18244121    -0.40900
C2938       C  0.32547451  0.94877298  0.17347039     0.32500
C2939       C  0.28984731  0.95029979  0.11328564     0.01100
F2940       F  0.27775595  0.99738273  0.13640672    -0.13200
F2941       F  0.34200918  0.93298783  0.18430968    -0.13700
C2942       C  0.26459496  0.94784559  0.10672833     0.16100
C2943       C  0.25796505  0.93645618  0.08408617     0.25500
C2944       C  0.27649808  0.92664948  0.06827580    -0.40800
C2945       C  0.30164760  0.92974630  0.07470380     0.32400
C2946       C  0.30824918  0.94254192  0.09632334     0.14100
F2947       F  0.24645461  0.95463586  0.12300438    -0.13200
F2948       F  0.31986072  0.91886375  0.06105106    -0.13700
F2949       F  0.23347320  0.93260762  0.07890355    -0.16000
F2950       F  0.33280812  0.94580745  0.10166830    -0.14500
F2951       F  0.31665623  0.91723369  0.14386984    -0.14500
F2952       F  0.30102392  0.01245698  0.17921365    -0.16000
C2953       C  0.21425353  0.96731322  0.84364031     0.14100
C2954       C  0.20282800  0.96912210  0.86717828     0.01100
C2955       C  0.17927541  0.98017249  0.86926154     0.16000
C2956       C  0.16612878  0.98689405  0.84795127     0.25500
C2957       C  0.17657367  0.98322596  0.82418414    -0.40900
C2958       C  0.20119215  0.97456956  0.82212867     0.32500
C2959       C  0.21194687  0.95411352  0.88824753     0.01100
F2960       F  0.16812652  0.98235805  0.89189430    -0.13200
F2961       F  0.21169473  0.97118665  0.79935717    -0.13700
C2962       C  0.23270211  0.96114192  0.90254241     0.16100
C2963       C  0.24059950  0.94607262  0.92243463     0.25500
C2964       C  0.22777107  0.92376867  0.92807775    -0.40800
C2965       C  0.20647210  0.91744686  0.91400283     0.32400
C2966       C  0.19880618  0.93238229  0.89429521     0.14100
F2967       F  0.24518550  0.98251433  0.89728221    -0.13200
F2968       F  0.19290513  0.89670549  0.91916753    -0.13700
F2969       F  0.26103591  0.95302978  0.93569215    -0.16000
F2970       F  0.17852235  0.92544351  0.88075333    -0.14500
F2971       F  0.23708002  0.95662099  0.84136969    -0.14500
F2972       F  0.14263155  0.99594653  0.85052843    -0.16000
C2973       C  0.24179129  0.81005457  0.88252162     0.14100
C2974       C  0.26476122  0.80563897  0.87046616     0.01100
C2975       C  0.28692399  0.81273075  0.88279161     0.16000
C2976       C  0.28595824  0.82468483  0.90607802     0.25500
C2977       C  0.26302199  0.82821411  0.91827792    -0.40900
C2978       C  0.24101440  0.82055557  0.90639183     0.32500
C2979       C  0.26509828  0.79400684  0.84507351     0.01100
F2980       F  0.30952986  0.80800222  0.87245207    -0.13200
F2981       F  0.21853182  0.82482873  0.91720241    -0.13700
C2982       C  0.27921384  0.80425449  0.82532038     0.16100
C2983       C  0.27770435  0.79411290  0.80119706     0.25500
C2984       C  0.26107177  0.77454123  0.79612854    -0.40800
C2985       C  0.24741475  0.76404504  0.81578822     0.32400
C2986       C  0.25001483  0.77307980  0.84007144     0.14100
F2987       F  0.29383120  0.82456974  0.82906165    -0.13200
F2988       F  0.23183293  0.74454746  0.81145532    -0.13700
F2989       F  0.29229924  0.80352915  0.78283832    -0.16000
F2990       F  0.23778630  0.76121933  0.85878413    -0.14500
F2991       F  0.21988634  0.80523649  0.87073082    -0.14500
F2992       F  0.30745618  0.83274411  0.91678029    -0.16000
C2993       C  0.25306585  0.77720055  0.15817718     0.14100
C2994       C  0.23872307  0.79894719  0.15483370     0.01100
C2995       C  0.22571390  0.80869100  0.17555132     0.16000
C2996       C  0.22760421  0.79733737  0.19911337     0.25500
C2997       C  0.24211745  0.77580134  0.20229979    -0.40900
C2998       C  0.25444798  0.76560729  0.18155249     0.32500
C2999       C  0.23830536  0.81190189  0.13008417     0.01100
F3000       F  0.21113362  0.82921408  0.17296972    -0.13200
F3001       F  0.26870482  0.74485009  0.18421428    -0.13700
C3002       C  0.23274440  0.79878945  0.10793472     0.16100
C3003       C  0.23403923  0.81067537  0.08460554     0.25500
C3004       C  0.24015164  0.83612688  0.08295474    -0.40800
C3005       C  0.24514139  0.84935972  0.10511636     0.32400
C3006       C  0.24454707  0.83733822  0.12832214     0.14100
F3007       F  0.22579245  0.77447297  0.10889468    -0.13200
F3008       F  0.25174088  0.87379123  0.10426352    -0.13700
F3009       F  0.22867076  0.79746311  0.06367106    -0.16000
F3010       F  0.25106841  0.85040964  0.14902245    -0.14500
F3011       F  0.26666191  0.76773450  0.13904224    -0.14500
F3012       F  0.21550781  0.80748436  0.21887721    -0.16000
C3013       C  0.38122987  0.91075772  0.00106083     0.14100
C3014       C  0.38367210  0.93505391  0.01064129     0.01100
C3015       C  0.36184917  0.94818050  0.01732591     0.16000
C3016       C  0.33827546  0.93713990  0.01467371     0.25500
C3017       C  0.33614412  0.91226527  0.00683146    -0.40900
C3018       C  0.35776542  0.89953638  0.99923557     0.32500
C3019       C  0.40872473  0.94712611  0.01206974     0.01100
F3020       F  0.36333829  0.97155422  0.02691562    -0.13200
F3021       F  0.35604301  0.87674234  0.98851026    -0.13700
C3022       C  0.41244356  0.97082941  0.00148275     0.16100
C3023       C  0.43599708  0.98189929  0.00177738     0.25500
C3024       C  0.45669002  0.96906039  0.01144519    -0.40800
C3025       C  0.45322901  0.94543741  0.02213853     0.32400
C3026       C  0.42934153  0.93472945  0.02287543     0.14100
F3027       F  0.39355957  0.98277881  0.98956336    -0.13200
F3028       F  0.47298207  0.93265078  0.03148071    -0.13700
F3029       F  0.43900024  0.00461232  0.99101528    -0.16000
F3030       F  0.42638490  0.91222364  0.03406779    -0.14500
F3031       F  0.40147530  0.89811473  0.99261271    -0.14500
F3032       F  0.31760036  0.95047006  0.02060850    -0.16000
C3033       C  0.03129300  0.84257958  0.71454425     0.14100
C3034       C  0.03413506  0.86613621  0.70344293     0.01100
C3035       C  0.02754210  0.86957590  0.67839471     0.16000
C3036       C  0.01995701  0.84936504  0.66405229     0.25500
C3037       C  0.01869701  0.82537705  0.67461866    -0.40900
C3038       C  0.02332535  0.82227329  0.70022294     0.32500
C3039       C  0.04831404  0.88591803  0.71597297     0.01100
F3040       F  0.03028135  0.89218877  0.66732397    -0.13200
F3041       F  0.02162671  0.79942223  0.71095881    -0.13700
C3042       C  0.07395594  0.88240683  0.71964832     0.16100
C3043       C  0.08902424  0.90240345  0.72639601     0.25500
C3044       C  0.07863220  0.92625967  0.72967327    -0.40800
C3045       C  0.05272430  0.92952110  0.72728164     0.32400
C3046       C  0.03764563  0.90944281  0.72024791     0.14100
F3047       F  0.08464179  0.85987340  0.71521593    -0.13200
F3048       F  0.04221359  0.95229689  0.73064511    -0.13700
F3049       F  0.11383509  0.89840163  0.72964455    -0.16000
F3050       F  0.01283233  0.91307870  0.71672945    -0.14500
F3051       F  0.03742490  0.83908693  0.73886770    -0.14500
F3052       F  0.01437950  0.85320525  0.63962257    -0.16000
C3053       C  0.96105365  0.59241287  0.71844290     0.14100
C3054       C  0.94899604  0.61462442  0.71144238     0.01100
C3055       C  0.92294915  0.61595898  0.71207738     0.16000
C3056       C  0.90901096  0.59533045  0.71915018     0.25500
C3057       C  0.92086256  0.57277900  0.72574081    -0.40900
C3058       C  0.94705159  0.57159653  0.72576832     0.32500
C3059       C  0.96287678  0.63546371  0.70027113     0.01100
F3060       F  0.91089790  0.63699625  0.70472093    -0.13200
F3061       F  0.95899043  0.55016598  0.73199694    -0.13700
C3062       C  0.97344278  0.63221006  0.67661737     0.16100
C3063       C  0.98201985  0.65272946  0.66328210     0.25500
C3064       C  0.98039934  0.67682557  0.67350758    -0.40800
C3065       C  0.97134449  0.67996614  0.69784290     0.32400
C3066       C  0.96222304  0.65938388  0.71104717     0.14100
F3067       F  0.97375761  0.60936866  0.66567807    -0.13200
F3068       F  0.96989214  0.70302659  0.70813105    -0.13700
F3069       F  0.99134739  0.64912598  0.64001329    -0.16000
F3070       F  0.95167848  0.66288645  0.73378885    -0.14500
F3071       F  0.98630302  0.59082721  0.71769072    -0.14500
F3072       F  0.88377675  0.59759690  0.71961533    -0.16000
C3073       C  0.13319701  0.68039679  0.53198497     0.14100
C3074       C  0.13581843  0.70608403  0.53536756     0.01100
C3075       C  0.15886172  0.71763308  0.53075407     0.16000
C3076       C  0.17940879  0.70328767  0.52339175     0.25500
C3077       C  0.17712470  0.67724144  0.52161011    -0.40900
C3078       C  0.15367908  0.66604124  0.52555071     0.32500
C3079       C  0.11600578  0.71904729  0.54886722     0.01100
F3080       F  0.16164461  0.74249965  0.53453806    -0.13200
F3081       F  0.15058039  0.64098445  0.52390907    -0.13700
C3082       C  0.11837882  0.72108522  0.57475738     0.16100
C3083       C  0.09793708  0.72761994  0.58917333     0.25500
C3084       C  0.07465210  0.73240792  0.57787265    -0.40800
C3085       C  0.07255055  0.73140811  0.55174478     0.32400
C3086       C  0.09312638  0.72441522  0.53731465     0.14100
F3087       F  0.14011885  0.71489298  0.58625201    -0.13200
F3088       F  0.05036558  0.73581249  0.54035154    -0.13700
F3089       F  0.10094203  0.72868382  0.61431209    -0.16000
F3090       F  0.09048512  0.72165037  0.51228525    -0.14500
F3091       F  0.11114033  0.66892799  0.53686327    -0.14500
F3092       F  0.20171797  0.71457992  0.51951089    -0.16000
C3093       C  0.84101196  0.78941566  0.53358998     0.14100
C3094       C  0.86479462  0.80041478  0.53402312     0.01100
C3095       C  0.86794782  0.82484710  0.52552247     0.16000
C3096       C  0.84736517  0.83877234  0.51816220     0.25500
C3097       C  0.82332407  0.82822122  0.51847248    -0.40900
C3098       C  0.82034536  0.80316144  0.52541559     0.32500
C3099       C  0.88493179  0.78931894  0.54880586     0.01100
F3100       F  0.89074001  0.83588135  0.52636542    -0.13200
F3101       F  0.79731569  0.79268677  0.52612566    -0.13700
C3102       C  0.90519572  0.77716231  0.53762537     0.16100
C3103       C  0.92546046  0.76937076  0.55223063     0.25500
C3104       C  0.92570547  0.77407955  0.57811416    -0.40800
C3105       C  0.90511213  0.78642084  0.58899290     0.32400
C3106       C  0.88504453  0.79387276  0.57445365     0.14100
F3107       F  0.90548682  0.77325499  0.51261469    -0.13200
F3108       F  0.90417666  0.79152549  0.61379506    -0.13700
F3109       F  0.94487267  0.75765256  0.54100665    -0.16000
F3110       F  0.86590941  0.80642354  0.58532508    -0.14500
F3111       F  0.83766540  0.76600945  0.54259897    -0.14500
F3112       F  0.85088510  0.86295257  0.51164039    -0.16000
C3113       C  0.10709045  0.76322895  0.70635201     0.14100
C3114       C  0.12902039  0.76813660  0.69261848     0.01100
C3115       C  0.12655228  0.77396171  0.66715595     0.16000
C3116       C  0.10308876  0.77420242  0.65560183     0.25500
C3117       C  0.08124744  0.76768576  0.66890594    -0.40900
C3118       C  0.08357458  0.76267475  0.69459369     0.32500
C3119       C  0.15445111  0.76575709  0.70427585     0.01100
F3120       F  0.14705518  0.77815893  0.65292858    -0.13200
F3121       F  0.06313776  0.75700952  0.70837013    -0.13700
C3122       C  0.16090697  0.74414321  0.71774993     0.16100
C3123       C  0.18478369  0.74138109  0.72809356     0.25500
C3124       C  0.20325766  0.75970248  0.72458693    -0.40800
C3125       C  0.19714025  0.78104233  0.71059089     0.32400
C3126       C  0.17289222  0.78430616  0.70104711     0.14100
F3127       F  0.14426509  0.72526031  0.72040964    -0.13200
F3128       F  0.21466003  0.79869820  0.70602012    -0.13700
F3129       F  0.18985785  0.72069863  0.74178255    -0.16000
F3130       F  0.16739352  0.80580859  0.68888619    -0.14500
F3131       F  0.10841396  0.75878833  0.73123977    -0.14500
F3132       F  0.10213362  0.77970501  0.63089601    -0.16000
C3133       C  0.00300535  0.59508289  0.52274532     0.14100
C3134       C  0.01152673  0.59827475  0.54738137     0.01100
C3135       C  0.01841594  0.57692504  0.56113840     0.16000
C3136       C  0.01641998  0.55295666  0.55059136     0.25500
C3137       C  0.00734737  0.54986483  0.52614619    -0.40900
C3138       C  0.00090717  0.57121269  0.51231253     0.32500
C3139       C  0.01229301  0.62375597  0.55882365     0.01100
F3140       F  0.02642386  0.57922451  0.58505566    -0.13200
F3141       F  0.99208587  0.56885994  0.48867551    -0.13700
C3142       C  0.99061173  0.63856655  0.55952513     0.16100
C3143       C  0.99100324  0.66235419  0.57039657     0.25500
C3144       C  0.01299726  0.67184419  0.58117852    -0.40800
C3145       C  0.03473192  0.65717807  0.58042255     0.32400
C3146       C  0.03445275  0.63346976  0.56915519     0.14100
F3147       F  0.96869556  0.62957354  0.55054137    -0.13200
F3148       F  0.05627732  0.66589662  0.59048648    -0.13700
F3149       F  0.96941460  0.67552953  0.57170043    -0.16000
F3150       F  0.05589261  0.62006097  0.56817924    -0.14500
F3151       F  0.99676562  0.61518340  0.50867005    -0.14500
F3152       F  0.02330446  0.53280866  0.56425341    -0.16000
C3153       C  0.87310286  0.73415987  0.66557740     0.14100
C3154       C  0.87083816  0.73759732  0.69142635     0.01100
C3155       C  0.89275960  0.74003501  0.70580843     0.16000
C3156       C  0.91637922  0.73985322  0.69439595     0.25500
C3157       C  0.91860331  0.73659287  0.66841915    -0.40900
C3158       C  0.89654434  0.73337431  0.65427078     0.32500
C3159       C  0.84555844  0.73978646  0.70289627     0.01100
F3160       F  0.89130348  0.74266968  0.73094868    -0.13200
F3161       F  0.89736921  0.73078052  0.62908480    -0.13700
C3162       C  0.82709623  0.72156644  0.69845186     0.16100
C3163       C  0.80291777  0.72444945  0.70796636     0.25500
C3164       C  0.79691477  0.74516496  0.72281859    -0.40800
C3165       C  0.81529963  0.76337231  0.72726802     0.32400
C3166       C  0.83926208  0.76085147  0.71722124     0.14100
F3167       F  0.83255967  0.70076437  0.68511668    -0.13200
F3168       F  0.81010161  0.78350407  0.74172140    -0.13700
F3169       F  0.78542711  0.70687567  0.70290849    -0.16000
F3170       F  0.85616955  0.77930928  0.72106154    -0.14500
F3171       F  0.85246641  0.73275578  0.65092547    -0.14500
F3172       F  0.93697328  0.74310973  0.70876011    -0.16000
C3173       C  0.87475052  0.91715875  0.47173295     0.14100
C3174       C  0.87740457  0.94213398  0.47907855     0.01100
C3175       C  0.85578538  0.95588105  0.48496785     0.16000
C3176       C  0.83236804  0.94423139  0.48592371     0.25500
C3177       C  0.82987453  0.91880056  0.47990597    -0.40900
C3178       C  0.85127605  0.90582198  0.47150298     0.32500
C3179       C  0.90272948  0.95298269  0.48300422     0.01100
F3180       F  0.85746815  0.98051384  0.49055301    -0.13200
F3181       F  0.84996458  0.88157164  0.46433504    -0.13700
C3182       C  0.92139718  0.95145726  0.46455188     0.16100
C3183       C  0.94547647  0.96065411  0.46921778     0.25500
C3184       C  0.95091099  0.97284237  0.49186097    -0.40800
C3185       C  0.93230336  0.97413547  0.51027212     0.32400
C3186       C  0.90871946  0.96392255  0.50609519     0.14100
F3187       F  0.91616840  0.94166983  0.44178066    -0.13200
F3188       F  0.93678440  0.98597384  0.53220697    -0.13700
F3189       F  0.96320455  0.95844129  0.45131008    -0.16000
F3190       F  0.89173539  0.96453302  0.52484349    -0.14500
F3191       F  0.89510678  0.90310390  0.46632773    -0.14500
F3192       F  0.81234965  0.95772667  0.49347258    -0.16000
C3193       C  0.07218725  0.05968324  0.51818318     0.14100
C3194       C  0.09291627  0.04441837  0.51262870     0.01100
C3195       C  0.08868510  0.01893924  0.50790319     0.16000
C3196       C  0.06437823  0.00925039  0.50780298     0.25500
C3197       C  0.04368527  0.02460478  0.51299538    -0.40900
C3198       C  0.04797325  0.04975061  0.51901533     0.32500
C3199       C  0.11875653  0.05515373  0.51203933     0.01100
F3200       F  0.10809190  0.00331891  0.50342201    -0.13200
F3201       F  0.02863914  0.06489521  0.52506609    -0.13700
C3202       C  0.12740041  0.06985269  0.53200203     0.16100
C3203       C  0.15063227  0.08173158  0.53086927     0.25500
C3204       C  0.16641382  0.07856436  0.51011122    -0.40800
C3205       C  0.15839802  0.06282202  0.49061758     0.32400
C3206       C  0.13471979  0.05149092  0.49142622     0.14100
F3207       F  0.11331874  0.07266544  0.55283327    -0.13200
F3208       F  0.17289553  0.05938531  0.47015776    -0.13700
F3209       F  0.15789575  0.09609963  0.55042257    -0.16000
F3210       F  0.12702140  0.03781259  0.47153703    -0.14500
F3211       F  0.07525103  0.08451342  0.52198695    -0.14500
F3212       F  0.06096100  0.98487979  0.50184825    -0.16000
C3213       C  0.04681455  0.96743412  0.58058338     0.14100
C3214       C  0.04302839  0.98622476  0.59861797     0.01100
C3215       C  0.02830709  0.00695174  0.59216397     0.16000
C3216       C  0.01789052  0.00898514  0.56824769     0.25500
C3217       C  0.02196597  0.99042679  0.55010213    -0.40900
C3218       C  0.03649510  0.96955614  0.55654543     0.32500
C3219       C  0.05594791  0.98519248  0.62337798     0.01100
F3220       F  0.02466470  0.02570658  0.60877549    -0.13200
F3221       F  0.04091189  0.95135535  0.53953555    -0.13700
C3222       C  0.08206559  0.98366839  0.62434064     0.16100
C3223       C  0.09471059  0.98392773  0.64720993     0.25500
C3224       C  0.08163346  0.98618383  0.66999810    -0.40800
C3225       C  0.05537174  0.98747437  0.66906967     0.32400
C3226       C  0.04267815  0.98685263  0.64601974     0.14100
F3227       F  0.09555029  0.98305152  0.60292602    -0.13200
F3228       F  0.04194019  0.98935132  0.69041766    -0.13700
F3229       F  0.12001563  0.98309688  0.64678294    -0.16000
F3230       F  0.01738110  0.98784321  0.64581725    -0.14500
F3231       F  0.06058350  0.94697691  0.58628260    -0.14500
F3232       F  0.00365399  0.02919335  0.56274201    -0.16000
C3233       C  0.01023011  0.12113221  0.41792419     0.14100
C3234       C  0.01046366  0.12050739  0.44410517     0.01100
C3235       C  0.01021266  0.14324262  0.45728418     0.16000
C3236       C  0.00930932  0.16613018  0.44446216     0.25500
C3237       C  0.00870466  0.16672005  0.41817537    -0.40900
C3238       C  0.00942342  0.14386140  0.40512108     0.32500
C3239       C  0.00966396  0.09601721  0.45730910     0.01100
F3240       F  0.01095487  0.14326737  0.48259618    -0.13200
F3241       F  0.00829196  0.14333263  0.37982026    -0.13700
C3242       C  0.02834774  0.07797452  0.45337621     0.16100
C3243       C  0.02630009  0.05406787  0.46386591     0.25500
C3244       C  0.00557593  0.04776591  0.47869471    -0.40800
C3245       C  0.98719501  0.06602509  0.48301920     0.32400
C3246       C  0.98918915  0.08983710  0.47243842     0.14100
F3247       F  0.04858794  0.08352590  0.43925458    -0.13200
F3248       F  0.96716698  0.06070031  0.49754527    -0.13700
F3249       F  0.04442556  0.03702953  0.45927726    -0.16000
F3250       F  0.97063490  0.10662176  0.47628243    -0.14500
F3251       F  0.00976594  0.09956412  0.40465720    -0.14500
F3252       F  0.00922695  0.18767026  0.45776409    -0.16000
C3253       C  0.96127028  0.86901125  0.57232862     0.14100
C3254       C  0.98190329  0.87846844  0.55911684     0.01100
C3255       C  0.00335271  0.86347256  0.55693529     0.16000
C3256       C  0.00432709  0.83981302  0.56796530     0.25500
C3257       C  0.98404140  0.83069844  0.58186773    -0.40900
C3258       C  0.96243659  0.84547588  0.58381381     0.32500
C3259       C  0.98163170  0.90409791  0.54812593     0.01100
F3260       F  0.02392189  0.87223912  0.54508085    -0.13200
F3261       F  0.94246670  0.83713366  0.59691543    -0.13700
C3262       C  0.97695352  0.92523497  0.56305488     0.16100
C3263       C  0.97894979  0.94939414  0.55306172     0.25500
C3264       C  0.98619103  0.95292383  0.52807124    -0.40800
C3265       C  0.99006757  0.93174255  0.51302114     0.32400
C3266       C  0.98758490  0.90768120  0.52283886     0.14100
F3267       F  0.97131540  0.92253406  0.58757755    -0.13200
F3268       F  0.99687980  0.93438265  0.48878582    -0.13700
F3269       F  0.97407019  0.96930605  0.56788367    -0.16000
F3270       F  0.99119558  0.88777580  0.50760754    -0.14500
F3271       F  0.93997237  0.88256513  0.57412017    -0.14500
F3272       F  0.02581185  0.82650260  0.56640252    -0.16000
C3273       C  0.94486071  0.11076414  0.26332590     0.14100
C3274       C  0.95429268  0.11291578  0.28764063     0.01100
C3275       C  0.95420836  0.09202667  0.30343180     0.16000
C3276       C  0.94249867  0.07000380  0.29593561     0.25500
C3277       C  0.93098308  0.06859840  0.27251750    -0.40900
C3278       C  0.93347452  0.08855389  0.25570499     0.32500
C3279       C  0.96022019  0.13757180  0.29820781     0.01100
F3280       F  0.96407969  0.09357040  0.32671949    -0.13200
F3281       F  0.92320497  0.08715896  0.23257787    -0.13700
C3282       C  0.94309915  0.14860190  0.31458118     0.16100
C3283       C  0.94939218  0.17017759  0.32764346     0.25500
C3284       C  0.97294118  0.18127073  0.32441335    -0.40800
C3285       C  0.98953546  0.17102702  0.30674216     0.32400
C3286       C  0.98318927  0.14922025  0.29376163     0.14100
F3287       F  0.92055874  0.13779998  0.31863071    -0.13200
F3288       F  0.01257842  0.18095408  0.30339438    -0.13700
F3289       F  0.93271109  0.17975056  0.34409530    -0.16000
F3290       F  0.99993810  0.13873750  0.27795101    -0.14500
F3291       F  0.94494174  0.13070169  0.24773804    -0.14500
F3292       F  0.94166722  0.05046465  0.31185530    -0.16000
C3293       C  0.81310682  0.06041311  0.15256708     0.14100
C3294       C  0.80080061  0.04276474  0.13760891     0.01100
C3295       C  0.79849631  0.01809210  0.14599773     0.16000
C3296       C  0.80989708  0.01084851  0.16835113     0.25500
C3297       C  0.82427100  0.02807531  0.18200788    -0.40900
C3298       C  0.82531491  0.05301040  0.17419215     0.32500
C3299       C  0.79255086  0.05024823  0.11248820     0.01100
F3300       F  0.78687237  0.00069994  0.13172212    -0.13200
F3301       F  0.83937576  0.06996610  0.18662505    -0.13700
C3302       C  0.80990095  0.06142823  0.09641842     0.16100
C3303       C  0.80177964  0.07461025  0.07564307     0.25500
C3304       C  0.77634728  0.07522730  0.06946147    -0.40800
C3305       C  0.75920608  0.06186223  0.08413408     0.32400
C3306       C  0.76725090  0.04966186  0.10578057     0.14100
F3307       F  0.83464384  0.06111560  0.10192886    -0.13200
F3308       F  0.73442491  0.06285496  0.07901442    -0.13700
F3309       F  0.81865718  0.08811874  0.06263109    -0.16000
F3310       F  0.75017104  0.03909644  0.12115966    -0.14500
F3311       F  0.81450943  0.08466416  0.14538960    -0.14500
F3312       F  0.80898295  0.98652245  0.17528954    -0.16000
C3313       C  0.81340858  0.94292284  0.34803307     0.14100
C3314       C  0.79595747  0.95895829  0.35904686     0.01100
C3315       C  0.79181535  0.98267803  0.34884860     0.16000
C3316       C  0.80537339  0.99039305  0.32790287     0.25500
C3317       C  0.82337453  0.97446831  0.31726792    -0.40900
C3318       C  0.82685738  0.95049603  0.32729568     0.32500
C3319       C  0.78240486  0.95011838  0.38112539     0.01100
F3320       F  0.77498926  0.99837938  0.35937371    -0.13200
F3321       F  0.84391153  0.93454670  0.31750832    -0.13700
C3322       C  0.78744902  0.96010784  0.40486575     0.16100
C3323       C  0.77963539  0.94735274  0.42626007     0.25500
C3324       C  0.76738805  0.92436857  0.42387074    -0.40800
C3325       C  0.76068682  0.91554801  0.40016062     0.32400
C3326       C  0.76793827  0.92846904  0.37894206     0.14100
F3327       F  0.80152501  0.98100759  0.40731464    -0.13200
F3328       F  0.74780681  0.89391176  0.39752895    -0.13700
F3329       F  0.78551043  0.95645946  0.44912456    -0.16000
F3330       F  0.76244663  0.91889695  0.35612838    -0.14500
F3331       F  0.81805758  0.92009637  0.35799187    -0.14500
F3332       F  0.80189363  0.01381421  0.31896166    -0.16000
C3333       C  0.93806471  0.90054065  0.19229551     0.14100
C3334       C  0.95599956  0.89067688  0.20858657     0.01100
C3335       C  0.96128130  0.90287855  0.23107762     0.16000
C3336       C  0.94758227  0.92397091  0.23797280     0.25500
C3337       C  0.92826528  0.93285336  0.22246343    -0.40900
C3338       C  0.92426466  0.92144407  0.19914965     0.32500
C3339       C  0.96726756  0.86641671  0.20272969     0.01100
F3340       F  0.97861614  0.89348555  0.24697503    -0.13200
F3341       F  0.90638176  0.92995382  0.18333390    -0.13700
C3342       C  0.99141045  0.86492700  0.19285827     0.16100
C3343       C  0.99973339  0.84255210  0.18233725     0.25500
C3344       C  0.98390483  0.82169491  0.18154564    -0.40800
C3345       C  0.96101683  0.82253750  0.19403719     0.32400
C3346       C  0.95256698  0.84485126  0.20433106     0.14100
F3347       F  0.00611346  0.88549800  0.19184171    -0.13200
F3348       F  0.94657473  0.80200658  0.19574516    -0.13700
F3349       F  0.02261778  0.84161539  0.17162295    -0.16000
F3350       F  0.92946929  0.84581012  0.21465392    -0.14500
F3351       F  0.93322061  0.88920654  0.17015063    -0.14500
F3352       F  0.95199743  0.93448638  0.26058961    -0.16000
C3353       C  0.83600599  0.87146499  0.26353926     0.14100
C3354       C  0.81005222  0.86962960  0.26046901     0.01100
C3355       C  0.79631953  0.89187371  0.25722681     0.16000
C3356       C  0.80840466  0.91528061  0.25667645     0.25500
C3357       C  0.83453223  0.91703112  0.25951792    -0.40900
C3358       C  0.84803037  0.89467206  0.26319016     0.32500
C3359       C  0.79788323  0.84437348  0.25961935     0.01100
F3360       F  0.77113692  0.89096948  0.25473983    -0.13200
F3361       F  0.87323869  0.89497540  0.26552815    -0.13700
C3362       C  0.80137315  0.82697496  0.27907952     0.16100
C3363       C  0.79168640  0.80262366  0.27734130     0.25500
C3364       C  0.77757461  0.79524878  0.25642603    -0.40800
C3365       C  0.77420512  0.81262425  0.23694664     0.32400
C3366       C  0.78424309  0.83678700  0.23849100     0.14100
F3367       F  0.81407007  0.83364871  0.29995669    -0.13200
F3368       F  0.76097509  0.80618447  0.21631581    -0.13700
F3369       F  0.79613613  0.78625662  0.29611477    -0.16000
F3370       F  0.78117828  0.85259304  0.21895137    -0.14500
F3371       F  0.85003760  0.85052590  0.26588438    -0.14500
F3372       F  0.79449378  0.93617255  0.25339117    -0.16000
C3373       C  0.79926247  0.10850954  0.23389853     0.14100
C3374       C  0.81233624  0.13106998  0.23699334     0.01100
C3375       C  0.83817925  0.13024258  0.24117399     0.16000
C3376       C  0.85074577  0.10737404  0.24235271     0.25500
C3377       C  0.83769276  0.08470400  0.23963761    -0.40900
C3378       C  0.81179718  0.08553531  0.23531953     0.32500
C3379       C  0.79904064  0.15545439  0.23743512     0.01100
F3380       F  0.85113231  0.15164544  0.24510510    -0.13200
F3381       F  0.79872478  0.06412595  0.23192475    -0.13700
C3382       C  0.78194156  0.16065986  0.25656263     0.16100
C3383       C  0.77092952  0.18424278  0.25841880     0.25500
C3384       C  0.77657827  0.20310454  0.24108793    -0.40800
C3385       C  0.79324911  0.19781701  0.22157455     0.32400
C3386       C  0.80444707  0.17417362  0.21980802     0.14100
F3387       F  0.77641651  0.14306632  0.27389738    -0.13200
F3388       F  0.79881735  0.21555243  0.20442444    -0.13700
F3389       F  0.75450482  0.18871312  0.27714892    -0.16000
F3390       F  0.82053776  0.16947173  0.20086241    -0.14500
F3391       F  0.77435275  0.10875768  0.22936937    -0.14500
F3392       F  0.87558562  0.10745048  0.24723515    -0.16000
C3393       C  0.97308389  0.01279055  0.41211383     0.14100
C3394       C  0.94700520  0.01360509  0.40943679     0.01100
C3395       C  0.93232516  0.01550685  0.43122143     0.16000
C3396       C  0.94357750  0.01616843  0.45494108     0.25500
C3397       C  0.96950704  0.01256525  0.45751987    -0.40900
C3398       C  0.98406913  0.01131735  0.43572502     0.32500
C3399       C  0.93553176  0.01206715  0.38395119     0.01100
F3400       F  0.90705041  0.01544191  0.42971661    -0.13200
F3401       F  0.00900573  0.00737953  0.43720423    -0.13700
C3402       C  0.94332172  0.99368031  0.36675729     0.16100
C3403       C  0.93356285  0.99291221  0.34242843     0.25500
C3404       C  0.91522520  0.01006143  0.33485235    -0.40800
C3405       C  0.90707621  0.02811935  0.35223631     0.32400
C3406       C  0.91725656  0.02925631  0.37630555     0.14100
F3407       F  0.95994093  0.97589821  0.37373945    -0.13200
F3408       F  0.88936734  0.04506478  0.34585120    -0.13700
F3409       F  0.94134536  0.97470639  0.32666746    -0.16000
F3410       F  0.90950504  0.04757558  0.39196075    -0.14500
F3411       F  0.98807239  0.01297296  0.39173255    -0.14500
F3412       F  0.92896817  0.01892965  0.47540903    -0.16000
C3413       C  0.09752029  0.27500605  0.95791575     0.14100
C3414       C  0.11781066  0.28582068  0.94549599     0.01100
C3415       C  0.11679346  0.28966457  0.91975756     0.16000
C3416       C  0.09533884  0.28384086  0.90652465     0.25500
C3417       C  0.07430993  0.27392868  0.91887629    -0.40900
C3418       C  0.07589186  0.26882758  0.94463435     0.32500
C3419       C  0.13811857  0.29773802  0.95925594     0.01100
F3420       F  0.13622233  0.30047559  0.90763570    -0.13200
F3421       F  0.05643682  0.25847003  0.95706018    -0.13700
C3422       C  0.16238726  0.28793228  0.95852228     0.16100
C3423       C  0.18253541  0.30242469  0.96658027     0.25500
C3424       C  0.17845376  0.32693726  0.97480321    -0.40800
C3425       C  0.15408296  0.33648583  0.97576073     0.32400
C3426       C  0.13404511  0.32185701  0.96834107     0.14100
F3427       F  0.16657853  0.26490080  0.94890099    -0.13200
F3428       F  0.14968384  0.36019066  0.98347815    -0.13700
F3429       F  0.20604693  0.29320231  0.96485732    -0.16000
F3430       F  0.11075374  0.33182550  0.96833954    -0.14500
F3431       F  0.09845117  0.27115150  0.98292509    -0.14500
F3432       F  0.09533375  0.28812379  0.88155656    -0.16000
C3433       C  0.03196379  0.15736656  0.78900712     0.14100
C3434       C  0.03149852  0.13378221  0.80045152     0.01100
C3435       C  0.02260521  0.13139204  0.82485839     0.16000
C3436       C  0.01555766  0.15246971  0.83823759     0.25500
C3437       C  0.01694605  0.17625038  0.82725220    -0.40900
C3438       C  0.02437538  0.17854664  0.80227800     0.32500
C3439       C  0.04604025  0.11312765  0.78997895     0.01100
F3440       F  0.02284925  0.10887201  0.83644335    -0.13200
F3441       F  0.02614604  0.20135593  0.79147435    -0.13700
C3442       C  0.07177967  0.11342010  0.79386295     0.16100
C3443       C  0.08625976  0.09318662  0.78695747     0.25500
C3444       C  0.07532133  0.07205634  0.77555897    -0.40800
C3445       C  0.04932235  0.07181264  0.77154962     0.32400
C3446       C  0.03471688  0.09221881  0.77900390     0.14100
F3447       F  0.08285951  0.13316801  0.80525699    -0.13200
F3448       F  0.03802420  0.05180190  0.76091971    -0.13700
F3449       F  0.11110577  0.09448671  0.79176642    -0.16000
F3450       F  0.00961569  0.09151196  0.77580388    -0.14500
F3451       F  0.04143075  0.15999906  0.76568586    -0.14500
F3452       F  0.00823167  0.14972985  0.86232196    -0.16000
C3453       C  0.94075901  0.35022356  0.81132528     0.14100
C3454       C  0.95893425  0.36537544  0.80006859     0.01100
C3455       C  0.98346451  0.35649326  0.79780453     0.16000
C3456       C  0.99005967  0.33354324  0.80839936     0.25500
C3457       C  0.97231560  0.31969649  0.82187596    -0.40900
C3458       C  0.94752151  0.32794543  0.82272490     0.32500
C3459       C  0.95214205  0.39108947  0.79292566     0.01100
F3460       F  0.00136764  0.37082422  0.78712214    -0.13200
F3461       F  0.93011477  0.31524535  0.83594107    -0.13700
C3462       C  0.94057027  0.40646688  0.81068723     0.16100
C3463       C  0.92787740  0.42780027  0.80319350     0.25500
C3464       C  0.92784129  0.43499516  0.77803397    -0.40800
C3465       C  0.94221798  0.42140139  0.76078087     0.32400
C3466       C  0.95402572  0.39929065  0.76812978     0.14100
F3467       F  0.93996243  0.39973752  0.83510723    -0.13200
F3468       F  0.94258799  0.42798888  0.73633481    -0.13700
F3469       F  0.91419721  0.44036574  0.82029621    -0.16000
F3470       F  0.96537928  0.38491173  0.75067472    -0.14500
F3471       F  0.91661225  0.35778880  0.81255922    -0.14500
F3472       F  0.01427388  0.32616950  0.80775099    -0.16000
C3473       C  0.85828901  0.18225630  0.94761381     0.14100
C3474       C  0.86647761  0.20138023  0.96343050     0.01100
C3475       C  0.85224303  0.20802241  0.98428128     0.16000
C3476       C  0.83031871  0.19496676  0.98976947     0.25500
C3477       C  0.82244551  0.17513576  0.97432619    -0.40900
C3478       C  0.83647486  0.16926834  0.95293426     0.32500
C3479       C  0.88968176  0.21446890  0.95720317     0.01100
F3480       F  0.86002153  0.22655254  0.99969259    -0.13200
F3481       F  0.82937548  0.15060263  0.93734021    -0.13700
C3482       C  0.88851221  0.23727490  0.94451304     0.16100
C3483       C  0.90940907  0.24600959  0.93172273     0.25500
C3484       C  0.93156255  0.23207988  0.93178162    -0.40800
C3485       C  0.93369365  0.21128904  0.94741410     0.32400
C3486       C  0.91264254  0.20210478  0.95964688     0.14100
F3487       F  0.86660665  0.24983515  0.94268589    -0.13200
F3488       F  0.95580954  0.19945303  0.95011993    -0.13700
F3489       F  0.90762478  0.26724193  0.91806721    -0.16000
F3490       F  0.91420163  0.18031439  0.97244043    -0.14500
F3491       F  0.87165049  0.17604949  0.92701861    -0.14500
F3492       F  0.81761592  0.20088856  0.01084075    -0.16000
C3493       C  0.16003288  0.25953624  0.77934962     0.14100
C3494       C  0.15332851  0.23900360  0.79431442     0.01100
C3495       C  0.17165645  0.22063390  0.79903639     0.16000
C3496       C  0.19600718  0.22307688  0.78960163     0.25500
C3497       C  0.20237554  0.24326706  0.77415478    -0.40900
C3498       C  0.18407718  0.26142586  0.76915989     0.32500
C3499       C  0.12794785  0.23763874  0.80628113     0.01100
F3500       F  0.16599285  0.20014274  0.81275524    -0.13200
F3501       F  0.18959238  0.28122319  0.75439132    -0.13700
C3502       C  0.10575342  0.24135977  0.79248903     0.16100
C3503       C  0.08226309  0.24169100  0.80438279     0.25500
C3504       C  0.08027191  0.23775290  0.83031192    -0.40800
C3505       C  0.10252855  0.23319626  0.84382158     0.32400
C3506       C  0.12584940  0.23352160  0.83209189     0.14100
F3507       F  0.10675230  0.24460278  0.76740288    -0.13200
F3508       F  0.10208298  0.22938987  0.86885685    -0.13700
F3509       F  0.06153186  0.24594642  0.79047529    -0.16000
F3510       F  0.14659070  0.23090930  0.84641634    -0.14500
F3511       F  0.14354244  0.27827511  0.77515646    -0.14500
F3512       F  0.21346656  0.20599467  0.79611796    -0.16000
C3513       C  0.03308326  0.37444681  0.92164024     0.14100
C3514       C  0.01305866  0.38290896  0.93649101     0.01100
C3515       C  0.99210444  0.36719873  0.93901774     0.16000
C3516       C  0.99141681  0.34363441  0.92755158     0.25500
C3517       C  0.01134788  0.33527939  0.91262893    -0.40900
C3518       C  0.03203919  0.35113259  0.90952963     0.32500
C3519       C  0.01381431  0.40796961  0.94923492     0.01100
F3520       F  0.97179738  0.37498438  0.95196232    -0.13200
F3521       F  0.05151161  0.34385183  0.89511281    -0.13700
C3522       C  0.01966911  0.42992691  0.93593101     0.16100
C3523       C  0.01944991  0.45337250  0.94777637     0.25500
C3524       C  0.01268107  0.45560114  0.97305269    -0.40800
C3525       C  0.00732925  0.43368390  0.98645427     0.32400
C3526       C  0.00809230  0.41022227  0.97481806     0.14100
F3527       F  0.02468177  0.42886453  0.91115030    -0.13200
F3528       F  0.00053825  0.43508190  0.01080438    -0.13700
F3529       F  0.02551024  0.47395357  0.93439706    -0.16000
F3530       F  0.00315363  0.38963127  0.98867568    -0.14500
F3531       F  0.05395197  0.38854714  0.91920291    -0.14500
F3532       F  0.97061972  0.32942216  0.93011747    -0.16000
C3533       C  0.86879765  0.25380688  0.83724181     0.14100
C3534       C  0.86682441  0.26083637  0.81201736     0.01100
C3535       C  0.88878536  0.26757873  0.79919733     0.16000
C3536       C  0.91212320  0.26688321  0.81119278     0.25500
C3537       C  0.91396728  0.26022590  0.83649335    -0.40900
C3538       C  0.89201629  0.25370355  0.84935502     0.32500
C3539       C  0.84211346  0.26006884  0.79891103     0.01100
F3540       F  0.88761559  0.27514617  0.77506687    -0.13200
F3541       F  0.89316365  0.24593846  0.87340599    -0.13700
C3542       C  0.82102005  0.27236545  0.80878504     0.16100
C3543       C  0.79767805  0.27059432  0.79691599     0.25500
C3544       C  0.79503132  0.25676728  0.77484743    -0.40800
C3545       C  0.81608897  0.24495367  0.76467931     0.32400
C3546       C  0.83928254  0.24633501  0.77668412     0.14100
F3547       F  0.82304540  0.28627082  0.82984292    -0.13200
F3548       F  0.81397163  0.23140324  0.74337717    -0.13700
F3549       F  0.77763661  0.28229953  0.80696827    -0.16000
F3550       F  0.85881084  0.23346613  0.76701207    -0.14500
F3551       F  0.84833351  0.24607302  0.84997179    -0.14500
F3552       F  0.93287264  0.27329667  0.79822556    -0.16000
C3553       C  0.87996362  0.08630176  0.01671593     0.14100
C3554       C  0.88199763  0.06038753  0.01336465     0.01100
C3555       C  0.85988639  0.04651078  0.00986516     0.16000
C3556       C  0.83646699  0.05838499  0.00890127     0.25500
C3557       C  0.83452010  0.08443125  0.01172160    -0.40900
C3558       C  0.85665781  0.09810658  0.01616011     0.32500
C3559       C  0.90720929  0.04824437  0.01226396     0.01100
F3560       F  0.86093182  0.02134154  0.00746113    -0.13200
F3561       F  0.85603673  0.12323110  0.01924990    -0.13700
C3562       C  0.92521245  0.05218519  0.03112843     0.16100
C3563       C  0.94932923  0.04199911  0.02909223     0.25500
C3564       C  0.95577902  0.02707684  0.00849572    -0.40800
C3565       C  0.93769767  0.02285782  0.98990247     0.32400
C3566       C  0.91388630  0.03352310  0.99158057     0.14100
F3567       F  0.91939120  0.06576924  0.05168021    -0.13200
F3568       F  0.94313718  0.00820839  0.96998641    -0.13700
F3569       F  0.96641853  0.04697005  0.04709621    -0.16000
F3570       F  0.89754143  0.02998471  0.97254247    -0.14500
F3571       F  0.90073050  0.10052206  0.01950747    -0.14500
F3572       F  0.81572073  0.04432657  0.00534534    -0.16000
C3573       C  0.02876157  0.99622296  0.90981385     0.14100
C3574       C  0.04895733  0.01213964  0.90467327     0.01100
C3575       C  0.05804566  0.02766154  0.92390116     0.16000
C3576       C  0.04743536  0.02685924  0.94786035     0.25500
C3577       C  0.02796393  0.01014204  0.95308504    -0.40900
C3578       C  0.01858527  0.99507047  0.93378725     0.32500
C3579       C  0.06090753  0.01177931  0.87953437     0.01100
F3580       F  0.07770907  0.04301914  0.91969257    -0.13200
F3581       F  0.99919327  0.97939813  0.93818645    -0.13700
C3582       C  0.06365883  0.03378884  0.86546406     0.16100
C3583       C  0.07540700  0.03324702  0.84206976     0.25500
C3584       C  0.08389103  0.01062855  0.83198775    -0.40800
C3585       C  0.08081029  0.98859161  0.84580616     0.32400
C3586       C  0.06970263  0.98918209  0.86943455     0.14100
F3587       F  0.05470505  0.05577117  0.87423737    -0.13200
F3588       F  0.08955797  0.96658564  0.83683478    -0.13700
F3589       F  0.07838155  0.05479320  0.82923209    -0.16000
F3590       F  0.06824084  0.96773984  0.88281732    -0.14500
F3591       F  0.01873133  0.98186515  0.89150377    -0.14500
F3592       F  0.05635551  0.04213010  0.96596550    -0.16000
C3593       C  0.01327794  0.85807388  0.04700785     0.14100
C3594       C  0.01552236  0.88081360  0.06011233     0.01100
C3595       C  0.01739952  0.87985635  0.08627591     0.16000
C3596       C  0.01698337  0.85700032  0.09899484     0.25500
C3597       C  0.01400104  0.83425550  0.08606856    -0.40900
C3598       C  0.01230255  0.83513268  0.05982129     0.32500
C3599       C  0.01487983  0.90557223  0.04692140     0.01100
F3600       F  0.01860027  0.90124204  0.09978425    -0.13200
F3601       F  0.00998130  0.81375165  0.04646590    -0.13700
C3602       C  0.99519434  0.91151656  0.03052614     0.16100
C3603       C  0.99358102  0.93522927  0.01957963     0.25500
C3604       C  0.01133546  0.95381153  0.02494884    -0.40800
C3605       C  0.03126528  0.94790273  0.04092766     0.32400
C3606       C  0.03313675  0.92400686  0.05163759     0.14100
F3607       F  0.97697166  0.89462588  0.02566637    -0.13200
F3608       F  0.04874748  0.96535833  0.04641241    -0.13700
F3609       F  0.97455124  0.94010869  0.00357520    -0.16000
F3610       F  0.05290975  0.91884795  0.06659658    -0.14500
F3611       F  0.01222184  0.85800582  0.02170811    -0.14500
F3612       F  0.01854355  0.85737675  0.12421901    -0.16000
C3613       C  0.14286089  0.94989270  0.97109407     0.14100
C3614       C  0.12199024  0.93969376  0.98354162     0.01100
C3615       C  0.12539240  0.91762484  0.99730478     0.16000
C3616       C  0.14877594  0.90593281  0.99846073     0.25500
C3617       C  0.16972341  0.91622900  0.98642865    -0.40900
C3618       C  0.16654643  0.93842796  0.97276356     0.32500
C3619       C  0.09694940  0.95237199  0.98347319     0.01100
F3620       F  0.10612001  0.90768626  0.01034816    -0.13200
F3621       F  0.18614921  0.94866858  0.96051746    -0.13700
C3622       C  0.07507707  0.93941280  0.97646576     0.16100
C3623       C  0.05136849  0.95045596  0.97909153     0.25500
C3624       C  0.04894906  0.97460575  0.98899947    -0.40800
C3625       C  0.07079652  0.98778948  0.99530890     0.32400
C3626       C  0.09445721  0.97691139  0.99244730     0.14100
F3627       F  0.07668079  0.91596022  0.96709629    -0.13200
F3628       F  0.06914290  0.01102789  0.00520377    -0.13700
F3629       F  0.03076814  0.93751588  0.97210019    -0.16000
F3630       F  0.11491129  0.99001256  0.99960287    -0.14500
F3631       F  0.14021412  0.97070526  0.95693217    -0.14500
F3632       F  0.15108179  0.88468901  0.01202147    -0.16000
C3633       C  0.95224247  0.98048415  0.14026781     0.14100
C3634       C  0.93991595  0.98821364  0.11823173     0.01100
C3635       C  0.91527061  0.99714193  0.12036616     0.16000
C3636       C  0.90316695  0.99772478  0.14354208     0.25500
C3637       C  0.91567568  0.99053220  0.16552014    -0.40900
C3638       C  0.94045154  0.98220193  0.16367038     0.32500
C3639       C  0.95278733  0.98784508  0.09325783     0.01100
F3640       F  0.90305744  0.00622561  0.10011145    -0.13200
F3641       F  0.95305567  0.97510188  0.18445837    -0.13700
C3642       C  0.94070908  0.97843187  0.07173344     0.16100
C3643       C  0.95195648  0.98014434  0.04808874     0.25500
C3644       C  0.97587902  0.99048179  0.04549689    -0.40800
C3645       C  0.98840620  0.99883825  0.06698303     0.32400
C3646       C  0.97690534  0.99796393  0.09045419     0.14100
F3647       F  0.91796627  0.96748066  0.07354441    -0.13200
F3648       F  0.01147999  0.00906889  0.06499766    -0.13700
F3649       F  0.93935737  0.97197328  0.02769811    -0.16000
F3650       F  0.98899267  0.00819002  0.11022566    -0.14500
F3651       F  0.97560123  0.97080985  0.13917599    -0.14500
F3652       F  0.87937261  0.00634622  0.14459272    -0.16000
C3653       C  0.01289493  0.13734595  0.94198077     0.14100
C3654       C  0.99124953  0.12244925  0.94270993     0.01100
C3655       C  0.96908511  0.13194452  0.93230041     0.16000
C3656       C  0.96874632  0.15539252  0.92074273     0.25500
C3657       C  0.99029931  0.17035176  0.92020875    -0.40900
C3658       C  0.01236059  0.16113658  0.93104385     0.32500
C3659       C  0.99187359  0.09687305  0.95378771     0.01100
F3660       F  0.94766491  0.11850760  0.93341231    -0.13200
F3661       F  0.03382350  0.17449425  0.92960273    -0.13700
C3662       C  0.99991256  0.09317486  0.97850362     0.16100
C3663       C  0.00088252  0.06912042  0.98872388     0.25500
C3664       C  0.99369419  0.04819338  0.97457351    -0.40800
C3665       C  0.98511768  0.05190226  0.95004613     0.32400
C3666       C  0.98445009  0.07595092  0.93968740     0.14100
F3667       F  0.00667588  0.11292267  0.99285237    -0.13200
F3668       F  0.97741272  0.03228180  0.93606831    -0.13700
F3669       F  0.00929645  0.06616792  0.01243856    -0.16000
F3670       F  0.97713304  0.07874414  0.91559898    -0.14500
F3671       F  0.03486012  0.12841912  0.95089259    -0.14500
F3672       F  0.94719944  0.16367274  0.91030143    -0.16000
loop_ 
_geom_bond_atom_site_label_1 
_geom_bond_atom_site_label_2 
_geom_bond_distance 
_geom_bond_site_symmetry_2 
_ccdc_geom_bond_type 
C1            C2   1.421   1_554  A
C1            C6   1.424   1_545  A
C1         C3564   1.502       .  S
C2            C3   1.419   1_655  A
C2         C3664   1.499       .  S
C3            C4   1.420   1_545  A
C3         C3577   1.492       .  S
C4            C5   1.424   1_556  A
C4         C3624   1.505       .  S
C5            C6   1.426   1_455  A
C5         C3604   1.500       .  S
C6         C3644   1.498       .  S
O7           C15   1.274       .  A
O7          Co27   2.018       .  S
O8           C16   1.275       .  A
O8          Co28   2.020       .  S
O9           C17   1.260       .  A
O9          Co29   1.981       .  S
O10          C18   1.267       .  A
O10         Co30   1.999       .  S
O11          C17   1.268       .  A
O11         Co28   2.037       .  S
O12          C18   1.266       .  A
O12         Co27   2.015       .  S
O13          C16   1.265       .  A
O13         Co30   1.959   1_655  S
O14          C15   1.265   1_655  A
O14         Co29   1.968       .  S
C15        C3437   1.467       .  S
C16        C3457   1.467       .  S
C17        C3537   1.491       .  S
C18        C3504   1.506       .  S
O19          C32   1.265       .  A
O19         Co27   1.959       .  S
O20          C33   1.259       .  A
O20         Co28   1.952       .  S
O21          C34   1.265       .  A
O21         Co29   2.020       .  S
O22          C35   1.270       .  A
O22         Co30   2.042       .  S
O23          C35   1.260   1_655  A
O23         Co28   1.972       .  S
O24          C34   1.263   1_455  A
O24         Co27   1.974       .  S
O25          C32   1.274       .  A
O25         Co30   2.009       .  S
O26          C33   1.279       .  A
O26         Co29   2.042       .  S
Co27         O31   2.105   1_455  S
Co28         O31   2.105       .  S
Co29         O31   2.104       .  S
Co30         O31   2.117   1_455  S
C32        C3417   1.476       .  S
C33        C3484   1.463       .  S
C34        C3657   1.485       .  S
C35        C3517   1.496       .  S
O36          C44   1.279       .  A
O36         Co56   2.027       .  S
O37          C45   1.277       .  A
O37         Co57   2.015       .  S
O38          C46   1.263       .  A
O38         Co58   1.994       .  S
O39          C47   1.259       .  A
O39         Co59   1.979       .  S
O40          C46   1.266       .  A
O40         Co57   2.023       .  S
O41          C47   1.265       .  A
O41         Co56   2.027       .  S
O42          C45   1.269   1_545  A
O42         Co59   1.963       .  S
O43          C44   1.267       .  A
O43         Co58   1.956   1_545  S
C44        C3297   1.467       .  S
C45        C3317   1.471       .  S
C46        C3357   1.505       .  S
C47        C3377   1.490       .  S
O48          C61   1.264       .  A
O48         Co56   1.954       .  S
O49          C62   1.268       .  A
O49         Co57   1.956       .  S
O50          C63   1.265       .  A
O50         Co58   2.025       .  S
O51          C64   1.261       .  A
O51         Co59   2.003       .  S
O52          C64   1.266   1_565  A
O52         Co57   1.992       .  S
O53          C63   1.262   1_545  A
O53         Co56   1.989       .  S
O54          C61   1.282       .  A
O54         Co59   2.047       .  S
O55          C62   1.280       .  A
O55         Co58   2.029       .  S
Co56         O60   2.102       .  S
Co57         O60   2.099   1_565  S
Co58         O60   2.106   1_565  S
Co59         O60   2.099       .  S
C61        C3277   1.468       .  S
C62        C3337   1.475       .  S
C63        C3637   1.491       .  S
C64        C3404   1.494       .  S
C65          C66   1.426   1_565  A
C65          C70   1.423       .  A
C65        C3184   1.498       .  S
C66          C67   1.423   1_655  A
C66        C3397   1.506       .  S
C67          C68   1.424       .  A
C67        C3244   1.502       .  S
C68          C69   1.422   1_545  A
C68        C3197   1.501       .  S
C69          C70   1.423   1_455  A
C69        C3217   1.500       .  S
C70        C3264   1.503       .  S
O71          C79   1.272       .  A
O71         Co91   2.014       .  S
O72          C80   1.272       .  A
O72         Co92   2.014       .  S
O73          C81   1.267       .  A
O73         Co93   1.985       .  S
O74          C82   1.269       .  A
O74         Co94   1.993       .  S
O75          C81   1.269       .  A
O75         Co92   2.015       .  S
O76          C82   1.269       .  A
O76         Co91   2.020       .  S
O77          C80   1.264   1_455  A
O77         Co94   1.968       .  S
O78          C79   1.262   1_655  A
O78         Co93   1.960       .  S
C79        C3037   1.467       .  S
C80        C3064   1.467       .  S
C81        C3157   1.494       .  S
C82        C3117   1.502       .  S
O83          C96   1.264       .  A
O83         Co91   1.967       .  S
O84          C97   1.267       .  A
O84         Co92   1.973       .  S
O85          C98   1.272       .  A
O85         Co93   2.037       .  S
O86          C99   1.273       .  A
O86         Co94   2.040       .  S
O87          C99   1.263       .  A
O87         Co92   1.967   1_455  S
O88          C98   1.263       .  A
O88         Co91   1.968   1_655  S
O89          C96   1.270       .  A
O89         Co94   2.002       .  S
O90          C97   1.269       .  A
O90         Co93   2.002       .  S
Co91         O95   2.099   1_455  S
Co92         O95   2.101       .  S
Co93         O95   2.104       .  S
Co94         O95   2.107   1_455  S
C96        C3084   1.471       .  S
C97        C3104   1.480       .  S
C98        C3257   1.486       .  S
C99        C3144   1.487       .  S
O100        C108   1.277       .  A
O100       Co120   2.025       .  S
O101        C109   1.281       .  A
O101       Co121   2.052       .  S
O102        C110   1.262       .  A
O102       Co122   1.978       .  S
O103        C111   1.259       .  A
O103       Co123   1.979       .  S
O104        C110   1.263       .  A
O104       Co121   2.011       .  S
O105        C111   1.266       .  A
O105       Co120   2.028       .  S
O106        C109   1.261   1_554  A
O106       Co123   1.958       .  S
O107        C108   1.264       .  A
O107       Co122   1.953   1_554  S
C108       C2897   1.465       .  S
C109       C2917   1.470       .  S
C110       C2977   1.478       .  S
C111       C3004   1.489       .  S
O112        C125   1.268       .  A
O112       Co120   1.962       .  S
O113        C126   1.266       .  A
O113       Co121   1.964       .  S
O114        C127   1.267       .  A
O114       Co122   2.029       .  S
O115        C128   1.267       .  A
O115       Co123   2.031       .  S
O116        C128   1.257   1_556  A
O116       Co121   1.972       .  S
O117        C127   1.265       .  A
O117       Co120   1.999   1_556  S
O118        C125   1.278       .  A
O118       Co123   2.033       .  S
O119        C126   1.275       .  A
O119       Co122   2.017       .  S
Co120       O124   2.113   1_554  S
Co121       O124   2.105       .  S
Co122       O124   2.105       .  S
Co123       O124   2.105   1_554  S
C125       C2944   1.473       .  S
C126       C2964   1.481       .  S
C127       C3617   1.496       .  S
C128       C3017   1.482       .  S
O129        C137   1.263   1_455  A
O129       Co149   1.960       .  S
O130        C138   1.263       .  A
O130       Co150   1.959   1_455  S
O131        C139   1.265       .  A
O131       Co151   2.011       .  S
O132        C140   1.267       .  A
O132       Co152   2.021       .  S
O133        C139   1.265       .  A
O133       Co150   1.975       .  S
O134        C140   1.264       .  A
O134       Co149   1.991       .  S
O135        C138   1.276       .  A
O135       Co152   2.021       .  S
O136        C137   1.278       .  A
O136       Co151   2.037       .  S
C137       C3344   1.467       .  S
C138       C2824   1.471       .  S
C139       C2857   1.486       .  S
C140       C2877   1.495       .  S
O141        C154   1.275       .  A
O141       Co149   2.016       .  S
O142        C155   1.272       .  A
O142       Co150   2.004       .  S
O143        C156   1.262       .  A
O143       Co151   1.981   1_455  S
O144        C157   1.266   1_455  A
O144       Co152   1.990       .  S
O145        C157   1.268       .  A
O145       Co150   2.026       .  S
O146        C156   1.272       .  A
O146       Co149   2.043       .  S
O147        C154   1.266       .  A
O147       Co152   1.962       .  S
O148        C155   1.267       .  A
O148       Co151   1.973       .  S
Co149       O153   2.105       .  S
Co150       O153   2.103   1_655  S
Co151       O153   2.105   1_655  S
Co152       O153   2.109       .  S
C154       C2904   1.467       .  S
C155       C2797   1.465       .  S
C156       C3597   1.504       .  S
C157       C2837   1.506       .  S
C158        C159   1.417       .  A
C158        C163   1.418       .  A
C158       C2744   1.489       .  S
C159        C160   1.414       .  A
C159       C2997   1.492       .  S
C160        C161   1.418       .  A
C160       C2884   1.494       .  S
C161        C162   1.419       .  A
C161       C2757   1.488       .  S
C162        C163   1.417       .  A
C162       C2777   1.495       .  S
C163       C2717   1.494       .  S
O164        C172   1.267       .  A
O164       Co184   1.964       .  S
O165        C173   1.266       .  A
O165       Co185   1.960       .  S
O166        C174   1.266       .  A
O166       Co186   2.020       .  S
O167        C175   1.268       .  A
O167       Co187   2.030       .  S
O168        C174   1.261       .  A
O168       Co185   1.972       .  S
O169        C175   1.263       .  A
O169       Co184   1.986       .  S
O170        C173   1.274       .  A
O170       Co187   2.013       .  S
O171        C172   1.275       .  A
O171       Co186   2.010       .  S
C172       C3077   1.470       .  S
C173       C2637   1.467       .  S
C174       C2704   1.481       .  S
C175       C2784   1.492       .  S
O176        C189   1.277       .  A
O176       Co184   2.023       .  S
O177        C190   1.277       .  A
O177       Co185   2.028       .  S
O178        C191   1.265       .  A
O178       Co186   1.985       .  S
O179        C192   1.261       .  A
O179       Co187   1.978       .  S
O180        C192   1.266       .  A
O180       Co185   2.019       .  S
O181        C191   1.266       .  A
O181       Co184   2.016       .  S
O182        C189   1.262       .  A
O182       Co187   1.945       .  S
O183        C190   1.265       .  A
O183       Co186   1.955       .  S
Co184       O188   2.102       .  S
Co185       O188   2.102       .  S
Co186       O188   2.106       .  S
Co187       O188   2.098       .  S
C189       C2597   1.459       .  S
C190       C2617   1.465       .  S
C191       C2684   1.496       .  S
C192       C2664   1.491       .  S
C193        C194   1.424       .  A
C193        C198   1.423       .  A
C193       C2537   1.505       .  S
C194        C195   1.425       .  A
C194       C3124   1.504       .  S
C195        C196   1.423       .  A
C195       C2697   1.494       .  S
C196        C197   1.417       .  A
C196       C2557   1.499       .  S
C197        C198   1.418       .  A
C197       C2584   1.502       .  S
C198       C2984   1.487       .  S
O199        C207   1.271       .  A
O199       Co219   2.009       .  S
O200        C208   1.272       .  A
O200       Co220   2.021       .  S
O201        C209   1.265       .  A
O201       Co221   1.977       .  S
O202        C210   1.263       .  A
O202       Co222   1.977       .  S
O203        C209   1.271       .  A
O203       Co220   2.035       .  S
O204        C210   1.271       .  A
O204       Co219   2.033       .  S
O205        C208   1.259       .  A
O205       Co222   1.960       .  S
O206        C207   1.265       .  A
O206       Co221   1.969       .  S
C207       C2924   1.481       .  S
C208       C2437   1.460       .  S
C209       C2477   1.494       .  S
C210       C2517   1.500       .  S
O211        C224   1.263       .  A
O211       Co219   1.964       .  S
O212        C225   1.260       .  A
O212       Co220   1.960       .  S
O213        C226   1.271       .  A
O213       Co221   2.031       .  S
O214        C227   1.271       .  A
O214       Co222   2.036       .  S
O215        C227   1.260       .  A
O215       Co220   1.965       .  S
O216        C226   1.264       .  A
O216       Co219   1.975       .  S
O217        C224   1.272       .  A
O217       Co222   2.015       .  S
O218        C225   1.272       .  A
O218       Co221   2.018       .  S
Co219       O223   2.108       .  S
Co220       O223   2.107       .  S
Co221       O223   2.110       .  S
Co222       O223   2.109       .  S
C224       C2424   1.476       .  S
C225       C2457   1.472       .  S
C226       C2577   1.492       .  S
C227       C2504   1.488       .  S
C228        C229   1.421       .  A
C228        C233   1.421       .  A
C228       C2344   1.499       .  S
C229        C230   1.419       .  A
C229       C3544   1.493       .  S
C230        C231   1.419       .  A
C230       C2404   1.497       .  S
C231        C232   1.419       .  A
C231       C2384   1.493       .  S
C232        C233   1.420       .  A
C232       C2357   1.495       .  S
C233       C2317   1.496       .  S
O234        C242   1.280       .  A
O234       Co254   2.031       .  S
O235        C243   1.276       .  A
O235       Co255   2.010       .  S
O236        C244   1.264       .  A
O236       Co256   1.997       .  S
O237        C245   1.263       .  A
O237       Co257   1.989       .  S
O238        C244   1.264       .  A
O238       Co255   2.017       .  S
O239        C245   1.266       .  A
O239       Co254   2.030       .  S
O240        C243   1.270       .  A
O240       Co257   1.970       .  S
O241        C242   1.267       .  A
O241       Co256   1.957       .  S
C242       C3464   1.471       .  S
C243       C3057   1.474       .  S
C244       C2264   1.500       .  S
C245       C2277   1.504       .  S
O246        C259   1.261       .  A
O246       Co254   1.947       .  S
O247        C260   1.265       .  A
O247       Co255   1.949       .  S
O248        C261   1.266       .  A
O248       Co256   2.033       .  S
O249        C262   1.262       .  A
O249       Co257   2.011       .  S
O250        C262   1.265       .  A
O250       Co255   1.986       .  S
O251        C261   1.259       .  A
O251       Co254   1.985       .  S
O252        C259   1.281       .  A
O252       Co257   2.039       .  S
O253        C260   1.279       .  A
O253       Co256   2.028       .  S
Co254       O258   2.100       .  S
Co255       O258   2.105       .  S
Co256       O258   2.106       .  S
Co257       O258   2.103       .  S
C259       C2237   1.459       .  S
C260       C2217   1.462       .  S
C261       C2397   1.497       .  S
C262       C2297   1.492       .  S
O263        C271   1.267       .  A
O263       Co283   1.960   1_655  S
O264        C272   1.268       .  A
O264       Co284   1.960   1_455  S
O265        C273   1.266       .  A
O265       Co285   2.023       .  S
O266        C274   1.269       .  A
O266       Co286   2.032       .  S
O267        C273   1.262       .  A
O267       Co284   1.991       .  S
O268        C274   1.263       .  A
O268       Co283   1.986       .  S
O269        C272   1.276       .  A
O269       Co286   2.018       .  S
O270        C271   1.279       .  A
O270       Co285   2.032       .  S
C271       C3284   1.479       .  S
C272       C2144   1.465       .  S
C273       C2177   1.488       .  S
C274       C2197   1.500       .  S
O275        C288   1.278       .  A
O275       Co283   2.024       .  S
O276        C289   1.280       .  A
O276       Co284   2.035       .  S
O277        C290   1.262   1_655  A
O277       Co285   1.985       .  S
O278        C291   1.265   1_455  A
O278       Co286   2.001       .  S
O279        C291   1.266       .  A
O279       Co284   2.021       .  S
O280        C290   1.266       .  A
O280       Co283   2.022       .  S
O281        C288   1.266       .  A
O281       Co286   1.953       .  S
O282        C289   1.264       .  A
O282       Co285   1.953       .  S
Co283       O287   2.103       .  S
Co284       O287   2.100   1_655  S
Co285       O287   2.103   1_655  S
Co286       O287   2.104       .  S
C288       C2117   1.469       .  S
C289       C2104   1.471       .  S
C290       C3237   1.494       .  S
C291       C2157   1.500       .  S
C292        C293   1.424       .  A
C292        C297   1.425       .  A
C292       C2057   1.494       .  S
C293        C294   1.416       .  A
C293       C2024   1.501       .  S
C294        C295   1.416       .  A
C294       C2204   1.499       .  S
C295        C296   1.421       .  A
C295       C2004   1.490       .  S
C296        C297   1.423       .  A
C296       C2084   1.501       .  S
C297       C2044   1.503       .  S
O298        C306   1.264       .  A
O298       Co318   1.961   1_556  S
O299        C307   1.258       .  A
O299       Co319   1.948   1_554  S
O300        C308   1.271       .  A
O300       Co320   2.040       .  S
O301        C309   1.267       .  A
O301       Co321   2.019       .  S
O302        C308   1.262       .  A
O302       Co319   1.971       .  S
O303        C309   1.264       .  A
O303       Co318   1.977       .  S
O304        C307   1.278       .  A
O304       Co321   2.037       .  S
O305        C306   1.275       .  A
O305       Co320   2.017       .  S
C306       C3424   1.461       .  S
C307       C1924   1.459       .  S
C308       C1977   1.488       .  S
C309       C2077   1.491       .  S
O310        C323   1.274       .  A
O310       Co318   2.021       .  S
O311        C324   1.272       .  A
O311       Co319   2.004       .  S
O312        C325   1.268       .  A
O312       Co320   1.996   1_554  S
O313        C326   1.260   1_554  A
O313       Co321   1.980       .  S
O314        C326   1.269       .  A
O314       Co319   2.035       .  S
O315        C325   1.266       .  A
O315       Co318   2.008       .  S
O316        C323   1.265       .  A
O316       Co321   1.968       .  S
O317        C324   1.268       .  A
O317       Co320   1.971       .  S
Co318       O322   2.099       .  S
Co319       O322   2.097   1_556  S
Co320       O322   2.114   1_556  S
Co321       O322   2.102       .  S
C323       C1904   1.463       .  S
C324       C1884   1.477       .  S
C325       C1944   1.501       .  S
C326       C1957   1.488       .  S
C327        C328   1.424       .  A
C327        C332   1.424       .  A
C327       C1797   1.498       .  S
C328        C329   1.426       .  A
C328       C1817   1.502       .  S
C329        C330   1.424       .  A
C329       C3497   1.503       .  S
C330        C331   1.422       .  A
C330       C1984   1.503       .  S
C331        C332   1.424       .  A
C331       C1837   1.497       .  S
C332       C1857   1.505       .  S
O333        C341   1.270       .  A
O333       Co353   2.008       .  S
O334        C342   1.272       .  A
O334       Co354   2.011       .  S
O335        C343   1.269       .  A
O335       Co355   1.993       .  S
O336        C344   1.269       .  A
O336       Co356   1.993       .  S
O337        C343   1.270       .  A
O337       Co354   2.020       .  S
O338        C344   1.272       .  A
O338       Co353   2.027       .  S
O339        C342   1.264       .  A
O339       Co356   1.967       .  S
O340        C341   1.267       .  A
O340       Co355   1.977       .  S
C341       C1677   1.475       .  S
C342       C1717   1.466       .  S
C343       C1784   1.502       .  S
C344       C1764   1.508       .  S
O345        C358   1.262       .  A
O345       Co353   1.965       .  S
O346        C359   1.265       .  A
O346       Co354   1.971       .  S
O347        C360   1.272       .  A
O347       Co355   2.036       .  S
O348        C361   1.272       .  A
O348       Co356   2.035       .  S
O349        C361   1.265       .  A
O349       Co354   1.974       .  S
O350        C360   1.263       .  A
O350       Co353   1.966       .  S
O351        C358   1.270       .  A
O351       Co356   2.011       .  S
O352        C359   1.272       .  A
O352       Co355   2.014       .  S
Co353       O357   2.096       .  S
Co354       O357   2.106       .  S
Co355       O357   2.113       .  S
Co356       O357   2.111       .  S
C358       C1737   1.463       .  S
C359       C1704   1.478       .  S
C360       C2364   1.483       .  S
C361       C1864   1.490       .  S
O362        C370   1.267       .  A
O362       Co382   1.963   1_565  S
O363        C371   1.269   1_565  A
O363       Co383   1.971       .  S
O364        C372   1.265       .  A
O364       Co384   2.009       .  S
O365        C373   1.269       .  A
O365       Co385   2.030       .  S
O366        C372   1.265       .  A
O366       Co383   1.985       .  S
O367        C373   1.264       .  A
O367       Co382   1.978       .  S
O368        C371   1.275       .  A
O368       Co385   2.007       .  S
O369        C370   1.278       .  A
O369       Co384   2.029       .  S
C370       C2937   1.475       .  S
C371       C1617   1.468       .  S
C372       C2737   1.487       .  S
C373       C2064   1.489       .  S
O374        C387   1.276       .  A
O374       Co382   2.012       .  S
O375        C388   1.278       .  A
O375       Co383   2.022       .  S
O376        C389   1.264       .  A
O376       Co384   1.987   1_545  S
O377        C390   1.270   1_545  A
O377       Co385   2.000       .  S
O378        C390   1.266       .  A
O378       Co383   2.015       .  S
O379        C389   1.268       .  A
O379       Co382   2.025       .  S
O380        C387   1.269       .  A
O380       Co385   1.971       .  S
O381        C388   1.269       .  A
O381       Co384   1.963       .  S
Co382       O386   2.100   1_545  S
Co383       O386   2.098       .  S
Co384       O386   2.100       .  S
Co385       O386   2.105   1_545  S
C387       C1597   1.478       .  S
C388       C1584   1.474       .  S
C389       C1637   1.500       .  S
C390       C1657   1.502       .  S
C391        C392   1.422       .  A
C391        C396   1.422       .  A
C391       C1777   1.500       .  S
C392        C393   1.423   1_545  A
C392       C1537   1.502       .  S
C393        C394   1.424       .  A
C393       C1504   1.494       .  S
C394        C395   1.423       .  A
C394       C1564   1.508       .  S
C395        C396   1.422   1_565  A
C395       C1664   1.497       .  S
C396       C1524   1.499       .  S
O397        C405   1.263       .  A
O397       Co417   1.969       .  S
O398        C406   1.265       .  A
O398       Co418   1.967       .  S
O399        C407   1.271       .  A
O399       Co419   2.035       .  S
O400        C408   1.272       .  A
O400       Co420   2.038       .  S
O401        C407   1.266       .  A
O401       Co418   1.983       .  S
O402        C408   1.265       .  A
O402       Co417   1.976       .  S
O403        C406   1.271       .  A
O403       Co420   2.001       .  S
O404        C405   1.271       .  A
O404       Co419   2.011       .  S
C405       C2644   1.464       .  S
C406       C1437   1.467       .  S
C407       C1457   1.500       .  S
C408       C1557   1.497       .  S
O409        C422   1.273       .  A
O409       Co417   2.016       .  S
O410        C423   1.273       .  A
O410       Co418   2.014       .  S
O411        C424   1.265       .  A
O411       Co419   1.977       .  S
O412        C425   1.268       .  A
O412       Co420   1.992       .  S
O413        C425   1.271       .  A
O413       Co418   2.032       .  S
O414        C424   1.268       .  A
O414       Co417   2.022       .  S
O415        C422   1.263       .  A
O415       Co420   1.967       .  S
O416        C423   1.262       .  A
O416       Co419   1.957       .  S
Co417       O421   2.108       .  S
Co418       O421   2.104       .  S
Co419       O421   2.110       .  S
Co420       O421   2.110       .  S
C422       C1577   1.465       .  S
C423       C1417   1.464       .  S
C424       C2724   1.485       .  S
C425       C1477   1.508       .  S
O426        C434   1.265       .  A
O426       Co446   1.965       .  S
O427        C435   1.258       .  A
O427       Co447   1.954       .  S
O428        C436   1.271       .  A
O428       Co448   2.037       .  S
O429        C437   1.270       .  A
O429       Co449   2.032       .  S
O430        C436   1.260   1_545  A
O430       Co447   1.970       .  S
O431        C437   1.264       .  A
O431       Co446   1.976   1_545  S
O432        C435   1.272       .  A
O432       Co449   2.015       .  S
O433        C434   1.272       .  A
O433       Co448   2.008       .  S
C434       C2417   1.472       .  S
C435       C1697   1.458       .  S
C436       C1404   1.488       .  S
C437       C1544   1.491       .  S
O438        C451   1.273       .  A
O438       Co446   2.020       .  S
O439        C452   1.272       .  A
O439       Co447   2.020       .  S
O440        C453   1.265       .  A
O440       Co448   1.978       .  S
O441        C454   1.263       .  A
O441       Co449   1.971       .  S
O442        C454   1.270       .  A
O442       Co447   2.031       .  S
O443        C453   1.268       .  A
O443       Co446   2.016       .  S
O444        C451   1.264       .  A
O444       Co449   1.962   1_565  S
O445        C452   1.262   1_565  A
O445       Co448   1.965       .  S
Co446       O450   2.104       .  S
Co447       O450   2.104   1_545  S
Co448       O450   2.105       .  S
Co449       O450   2.111   1_545  S
C451       C1364   1.469       .  S
C452       C1337   1.463       .  S
C453       C1377   1.492       .  S
C454       C2324   1.485       .  S
C455        C456   1.421       .  A
C455        C460   1.426   1_565  A
C455       C1397   1.498       .  S
C456        C457   1.420   1_556  A
C456       C2524   1.507       .  S
C457        C458   1.419   1_565  A
C457       C3024   1.488       .  S
C458        C459   1.423       .  A
C458       C1644   1.502       .  S
C459        C460   1.427   1_554  A
C459       C1317   1.502       .  S
C460       C1297   1.503       .  S
O461        C469   1.265       .  A
O461       Co481   1.961       .  S
O462        C470   1.268       .  A
O462       Co482   1.970       .  S
O463        C471   1.268       .  A
O463       Co483   2.018       .  S
O464        C472   1.269       .  A
O464       Co484   2.030       .  S
O465        C471   1.266       .  A
O465       Co482   1.991       .  S
O466        C472   1.265       .  A
O466       Co481   1.980       .  S
O467        C470   1.272       .  A
O467       Co484   2.005       .  S
O468        C469   1.276       .  A
O468       Co483   2.021       .  S
C469       C1917   1.472       .  S
C470       C1244   1.479       .  S
C471       C1264   1.494       .  S
C472       C1324   1.495       .  S
O473        C486   1.274       .  A
O473       Co481   2.013       .  S
O474        C487   1.274       .  A
O474       Co482   2.012       .  S
O475        C488   1.266       .  A
O475       Co483   1.990       .  S
O476        C489   1.267       .  A
O476       Co484   1.989       .  S
O477        C489   1.271       .  A
O477       Co482   2.031       .  S
O478        C488   1.268       .  A
O478       Co481   2.025       .  S
O479        C486   1.266       .  A
O479       Co484   1.964       .  S
O480        C487   1.270       .  A
O480       Co483   1.974       .  S
Co481       O485   2.108       .  S
Co482       O485   2.105       .  S
Co483       O485   2.103       .  S
Co484       O485   2.103       .  S
C486       C1604   1.475       .  S
C487       C1217   1.481       .  S
C488       C2037   1.500       .  S
C489       C1284   1.498       .  S
O490        C498   1.272       .  A
O490       Co510   2.015       .  S
O491        C499   1.274       .  A
O491       Co511   2.027       .  S
O492        C500   1.261       .  A
O492       Co512   1.977       .  S
O493        C501   1.259       .  A
O493       Co513   1.971       .  S
O494        C500   1.271       .  A
O494       Co511   2.044       .  S
O495        C501   1.268       .  A
O495       Co510   2.033       .  S
O496        C499   1.263       .  A
O496       Co513   1.951       .  S
O497        C498   1.262       .  A
O497       Co512   1.962       .  S
C498       C2124   1.457       .  S
C499       C1724   1.476       .  S
C500       C1804   1.494       .  S
C501       C2017   1.488       .  S
O502        C515   1.261       .  A
O502       Co510   1.950       .  S
O503        C516   1.258       .  A
O503       Co511   1.954       .  S
O504        C517   1.268       .  A
O504       Co512   2.025       .  S
O505        C518   1.269       .  A
O505       Co513   2.035       .  S
O506        C518   1.260       .  A
O506       Co511   1.982       .  S
O507        C517   1.263       .  A
O507       Co510   1.980       .  S
O508        C515   1.274       .  A
O508       Co513   2.024       .  S
O509        C516   1.276       .  A
O509       Co512   2.027       .  S
Co510       O514   2.109       .  S
Co511       O514   2.109       .  S
Co512       O514   2.099       .  S
Co513       O514   2.108       .  S
C515       C1624   1.466       .  S
C516       C1197   1.457       .  S
C517       C3204   1.495       .  S
C518       C1517   1.495       .  S
C519        C520   1.427       .  A
C519        C524   1.423       .  A
C519       C3364   1.510       .  S
C520        C521   1.429       .  A
C520       C1137   1.507       .  S
C521        C522   1.427       .  A
C521       C1484   1.503       .  S
C522        C523   1.423       .  A
C522       C1177   1.509       .  S
C523        C524   1.424       .  A
C523       C1157   1.500       .  S
C524       C2864   1.498       .  S
O525        C533   1.277       .  A
O525       Co545   2.023       .  S
O526        C534   1.279       .  A
O526       Co546   2.040       .  S
O527        C535   1.265       .  A
O527       Co547   1.984       .  S
O528        C536   1.262       .  A
O528       Co548   1.984       .  S
O529        C535   1.264       .  A
O529       Co546   2.014       .  S
O530        C536   1.268       .  A
O530       Co545   2.029       .  S
O531        C534   1.262       .  A
O531       Co548   1.957       .  S
O532        C533   1.266       .  A
O532       Co547   1.960       .  S
C533       C1424   1.468       .  S
C534       C1224   1.465       .  S
C535       C1084   1.493       .  S
C536       C1097   1.499       .  S
O537        C550   1.267       .  A
O537       Co545   1.966       .  S
O538        C551   1.266       .  A
O538       Co546   1.967       .  S
O539        C552   1.266       .  A
O539       Co547   2.023       .  S
O540        C553   1.267       .  A
O540       Co548   2.031       .  S
O541        C553   1.260       .  A
O541       Co546   1.983       .  S
O542        C552   1.264       .  A
O542       Co545   1.981       .  S
O543        C550   1.277       .  A
O543       Co548   2.022       .  S
O544        C551   1.275       .  A
O544       Co547   2.024       .  S
Co545       O549   2.106       .  S
Co546       O549   2.104       .  S
Co547       O549   2.113       .  S
Co548       O549   2.106       .  S
C550       C1044   1.480       .  S
C551       C1057   1.464       .  S
C552       C1184   1.495       .  S
C553       C1117   1.485       .  S
C554        C555   1.420       .  A
C554        C559   1.420       .  A
C554       C2184   1.503       .  S
C555        C556   1.423       .  A
C555       C3384   1.494       .  S
C556        C557   1.422       .  A
C556       C1004   1.499       .  S
C557        C558   1.421       .  A
C557       C1277   1.503       .  S
C558        C559   1.421       .  A
C558       C1124   1.494       .  S
C559       C1017   1.495       .  S
C560        C561   1.423       .  A
C560        C565   1.420       .  A
C560       C3164   1.495       .  S
C561        C562   1.420       .  A
C561       C2304   1.499       .  S
C562        C563   1.423       .  A
C562        C984   1.506       .  S
C563        C564   1.428       .  A
C563       C2497   1.501       .  S
C564        C565   1.424       .  A
C564       C1384   1.497       .  S
C565        C957   1.505       .  S
O566        C574   1.264   1_545  A
O566       Co586   1.968       .  S
O567        C575   1.265       .  A
O567       Co587   1.960   1_545  S
O568        C576   1.269       .  A
O568       Co588   2.028       .  S
O569        C577   1.271       .  A
O569       Co589   2.031       .  S
O570        C576   1.266       .  A
O570       Co587   1.983       .  S
O571        C577   1.269       .  A
O571       Co586   1.995       .  S
O572        C575   1.273       .  A
O572       Co589   2.009       .  S
O573        C574   1.274       .  A
O573       Co588   2.017       .  S
C574       C2957   1.468       .  S
C575       C1204   1.471       .  S
C576       C2544   1.495       .  S
C577       C1824   1.500       .  S
O578        C591   1.271       .  A
O578       Co586   2.000       .  S
O579        C592   1.273       .  A
O579       Co587   2.019       .  S
O580        C593   1.260   1_565  A
O580       Co588   1.967       .  S
O581        C594   1.267       .  A
O581       Co589   1.989   1_565  S
O582        C594   1.270       .  A
O582       Co587   2.024       .  S
O583        C593   1.270       .  A
O583       Co586   2.035       .  S
O584        C591   1.268       .  A
O584       Co589   1.973       .  S
O585        C592   1.261       .  A
O585       Co588   1.957       .  S
Co586       O590   2.102       .  S
Co587       O590   2.102   1_565  S
Co588       O590   2.099   1_565  S
Co589       O590   2.109       .  S
C591       C3444   1.481       .  S
C592       C3044   1.468       .  S
C593       C3584   1.479       .  S
C594       C3224   1.500       .  S
O595        C603   1.265       .  A
O595       Co615   1.953       .  S
O596        C604   1.262       .  A
O596       Co616   1.954       .  S
O597        C605   1.268       .  A
O597       Co617   2.038       .  S
O598        C606   1.265       .  A
O598       Co618   2.019       .  S
O599        C605   1.260       .  A
O599       Co616   1.983       .  S
O600        C606   1.262       .  A
O600       Co615   1.976       .  S
O601        C604   1.280       .  A
O601       Co618   2.042       .  S
O602        C603   1.276       .  A
O602       Co617   2.019       .  S
C603       C2224   1.463       .  S
C604       C1037   1.466       .  S
C605        C937   1.493       .  S
C606        C917   1.491       .  S
O607        C620   1.277       .  A
O607       Co615   2.029       .  S
O608        C621   1.277       .  A
O608       Co616   2.027       .  S
O609        C622   1.264       .  A
O609       Co617   1.992       .  S
O610        C623   1.261       .  A
O610       Co618   1.985       .  S
O611        C623   1.267       .  A
O611       Co616   2.026       .  S
O612        C622   1.264       .  A
O612       Co615   2.010       .  S
O613        C620   1.267       .  A
O613       Co618   1.969       .  S
O614        C621   1.266       .  A
O614       Co617   1.958       .  S
Co615       O619   2.106       .  S
Co616       O619   2.102       .  S
Co617       O619   2.112       .  S
Co618       O619   2.103       .  S
C620       C1684   1.476       .  S
C621       C2097   1.469       .  S
C622       C2377   1.493       .  S
C623       C1024   1.491       .  S
C624        C625   1.422       .  A
C624        C629   1.420       .  A
C624       C2677   1.497       .  S
C625        C626   1.423   1_455  A
C625       C3137   1.500       .  S
C626        C627   1.424       .  A
C626       C2257   1.500       .  S
C627        C628   1.419       .  A
C627        C944   1.496       .  S
C628        C629   1.417   1_655  A
C628       C2164   1.497       .  S
C629        C904   1.494       .  S
O630        C638   1.276       .  A
O630       Co650   2.017       .  S
O631        C639   1.275       .  A
O631       Co651   2.007       .  S
O632        C640   1.268       .  A
O632       Co652   2.001       .  S
O633        C641   1.268       .  A
O633       Co653   1.991       .  S
O634        C640   1.268       .  A
O634       Co651   2.023       .  S
O635        C641   1.266       .  A
O635       Co650   2.010       .  S
O636        C639   1.269       .  A
O636       Co653   1.972   1_556  S
O637        C638   1.270       .  A
O637       Co652   1.967   1_554  S
C638       C2804   1.477       .  S
C639       C2444   1.479       .  S
C640        C977   1.505       .  S
C641       C1164   1.495       .  S
O642        C655   1.270       .  A
O642       Co650   1.968       .  S
O643        C656   1.263       .  A
O643       Co651   1.947       .  S
O644        C657   1.268       .  A
O644       Co652   2.022       .  S
O645        C658   1.269       .  A
O645       Co653   2.028       .  S
O646        C658   1.264   1_556  A
O646       Co651   1.984       .  S
O647        C657   1.266   1_554  A
O647       Co650   1.991       .  S
O648        C655   1.276       .  A
O648       Co653   2.016       .  S
O649        C656   1.277       .  A
O649       Co652   2.021       .  S
Co650       O654   2.099   1_554  S
Co651       O654   2.088       .  S
Co652       O654   2.107       .  S
Co653       O654   2.102   1_554  S
C655       C1064   1.476       .  S
C656       C2244   1.461       .  S
C657        C857   1.491       .  S
C658        C877   1.498       .  S
C659        C660   1.416       .  A
C659        C664   1.416       .  A
C659        C837   1.490       .  S
C660        C661   1.421   1_556  A
C660       C2484   1.502       .  S
C661        C662   1.428       .  A
C661        C884   1.497       .  S
C662        C663   1.427       .  A
C662       C1077   1.507       .  S
C663        C664   1.422   1_554  A
C663       C1257   1.501       .  S
C664       C1964   1.496       .  S
O665        C673   1.267       .  A
O665       Co685   1.959   1_556  S
O666        C674   1.260   1_556  A
O666       Co686   1.949       .  S
O667        C675   1.267       .  A
O667       Co687   2.027       .  S
O668        C676   1.264       .  A
O668       Co688   2.015       .  S
O669        C675   1.262       .  A
O669       Co686   1.986       .  S
O670        C676   1.263       .  A
O670       Co685   1.981       .  S
O671        C674   1.280       .  A
O671       Co688   2.043       .  S
O672        C673   1.278       .  A
O672       Co687   2.025       .  S
C673       C3477   1.477       .  S
C674       C1237   1.463       .  S
C675       C2337   1.497       .  S
C676        C997   1.489       .  S
O677        C690   1.277       .  A
O677       Co685   2.023       .  S
O678        C691   1.275       .  A
O678       Co686   2.015       .  S
O679        C692   1.264   1_556  A
O679       Co687   1.989       .  S
O680        C693   1.261   1_554  A
O680       Co688   1.984       .  S
O681        C693   1.270       .  A
O681       Co686   2.041       .  S
O682        C692   1.266       .  A
O682       Co685   2.017       .  S
O683        C690   1.267       .  A
O683       Co688   1.960       .  S
O684        C691   1.267       .  A
O684       Co687   1.964       .  S
Co685       O689   2.103   1_554  S
Co686       O689   2.100       .  S
Co687       O689   2.109       .  S
Co688       O689   2.106   1_554  S
C690       C3304   1.468       .  S
C691       C1344   1.474       .  S
C692       C3557   1.501       .  S
C693       C1304   1.503       .  S
O694        C702   1.275       .  A
O694       Co714   2.024       .  S
O695        C703   1.272       .  A
O695       Co715   2.015       .  S
O696        C704   1.264       .  A
O696       Co716   1.976       .  S
O697        C705   1.264       .  A
O697       Co717   1.984       .  S
O698        C704   1.268       .  A
O698       Co715   2.028       .  S
O699        C705   1.268       .  A
O699       Co714   2.023       .  S
O700        C703   1.263       .  A
O700       Co717   1.966       .  S
O701        C702   1.261       .  A
O701       Co716   1.953       .  S
C702       C2624   1.467       .  S
C703       C1877   1.459       .  S
C704       C1844   1.484       .  S
C705       C2564   1.495       .  S
O706        C719   1.262       .  A
O706       Co714   1.959       .  S
O707        C720   1.265       .  A
O707       Co715   1.966       .  S
O708        C721   1.271       .  A
O708       Co716   2.038       .  S
O709        C722   1.269       .  A
O709       Co717   2.029       .  S
O710        C722   1.263       .  A
O710       Co715   1.976       .  S
O711        C721   1.260       .  A
O711       Co714   1.967       .  S
O712        C719   1.275       .  A
O712       Co717   2.021       .  S
O713        C720   1.270       .  A
O713       Co716   2.002       .  S
Co714       O718   2.099       .  S
Co715       O718   2.107       .  S
Co716       O718   2.107       .  S
Co717       O718   2.106       .  S
C719       C2464   1.474       .  S
C720       C1744   1.477       .  S
C721        C824   1.491       .  S
C722        C844   1.479       .  S
O723        C731   1.275       .  A
O723       Co743   2.027       .  S
O724        C732   1.274       .  A
O724       Co744   2.017       .  S
O725        C733   1.264       .  A
O725       Co745   1.981       .  S
O726        C734   1.267       .  A
O726       Co746   1.990       .  S
O727        C733   1.268       .  A
O727       Co744   2.019       .  S
O728        C734   1.266       .  A
O728       Co743   2.008       .  S
O729        C732   1.267       .  A
O729       Co746   1.972       .  S
O730        C731   1.260       .  A
O730       Co745   1.956       .  S
C731       C3324   1.460       .  S
C732       C1357   1.474       .  S
C733       C1497   1.495       .  S
C734       C3177   1.494       .  S
O735        C748   1.266       .  A
O735       Co743   1.968       .  S
O736        C749   1.267       .  A
O736       Co744   1.971       .  S
O737        C750   1.272       .  A
O737       Co745   2.042       .  S
O738        C751   1.271       .  A
O738       Co746   2.036       .  S
O739        C751   1.265       .  A
O739       Co744   1.976       .  S
O740        C750   1.263       .  A
O740       Co743   1.973       .  S
O741        C748   1.274       .  A
O741       Co746   2.014       .  S
O742        C749   1.271       .  A
O742       Co745   1.999       .  S
Co743       O747   2.100       .  S
Co744       O747   2.099       .  S
Co745       O747   2.105       .  S
Co746       O747   2.113       .  S
C748       C3097   1.469       .  S
C749       C1444   1.472       .  S
C750       C1144   1.498       .  S
C751        C964   1.493       .  S
O752        C760   1.267       .  A
O752       Co772   1.966       .  S
O753        C761   1.266       .  A
O753       Co773   1.957       .  S
O754        C762   1.270       .  A
O754       Co774   2.030       .  S
O755        C763   1.268       .  A
O755       Co775   2.025       .  S
O756        C762   1.263       .  A
O756       Co773   1.977       .  S
O757        C763   1.262       .  A
O757       Co772   1.983       .  S
O758        C761   1.275       .  A
O758       Co775   2.017       .  S
O759        C760   1.274       .  A
O759       Co774   2.006       .  S
C760       C2817   1.475       .  S
C761       C2137   1.464       .  S
C762        C804   1.488       .  S
C763        C897   1.489       .  S
O764        C777   1.277       .  A
O764       Co772   2.027       .  S
O765        C778   1.275       .  A
O765       Co773   2.015       .  S
O766        C779   1.265       .  A
O766       Co774   1.988       .  S
O767        C780   1.262       .  A
O767       Co775   1.983       .  S
O768        C780   1.267       .  A
O768       Co773   2.017       .  S
O769        C779   1.266       .  A
O769       Co772   2.014       .  S
O770        C777   1.262       .  A
O770       Co775   1.946       .  S
O771        C778   1.265       .  A
O771       Co774   1.956       .  S
Co772       O776   2.098       .  S
Co773       O776   2.097       .  S
Co774       O776   2.099       .  S
Co775       O776   2.102       .  S
C777       C2604   1.459       .  S
C778       C1897   1.469       .  S
C779       C2764   1.490       .  S
C780       C1997   1.491       .  S
C781        C782   1.431       .  A
C781        C786   1.429       .  A
C781        C817   1.510       .  S
C782        C783   1.426       .  A
C782       C2657   1.499       .  S
C783        C784   1.424       .  A
C783       C1464   1.515       .  S
C784        C785   1.426       .  A
C784       C1104   1.500       .  S
C785        C786   1.429       .  A
C785        C924   1.502       .  S
C786       C1757   1.517       .  S
C787        C788   1.433       .  A
C787        C792   1.428   1_455  A
C787        C797   1.509       .  S
C788        C789   1.429   1_554  A
C788       C1937   1.504       .  S
C789        C790   1.422   1_455  A
C789       C3524   1.507       .  S
C790        C791   1.420       .  A
C790       C2284   1.502       .  S
C791        C792   1.425   1_556  A
C791        C864   1.496       .  S
C792       C2844   1.510       .  S
C793        C794   1.410       .  A
C793        C798   1.409       .  A
C793        F811   1.358       .  S
C794        C795   1.406       .  A
C794        C799   1.499       .  S
C795        C796   1.404       .  A
C795        F800   1.358       .  S
C796        C797   1.411       .  A
C796        F812   1.357   1_455  S
C797        C798   1.410       .  A
C798        F801   1.357       .  S
C799        C802   1.408       .  A
C799        C806   1.410       .  A
C802        C803   1.406       .  A
C802        F807   1.357       .  S
C803        C804   1.407       .  A
C803        F809   1.357       .  S
C804        C805   1.408       .  A
C805        C806   1.407       .  A
C805        F808   1.358       .  S
C806        F810   1.358       .  S
C813        C814   1.407       .  A
C813        C818   1.403       .  A
C813        F831   1.358       .  S
C814        C815   1.410       .  A
C814        C819   1.500       .  S
C815        C816   1.407       .  A
C815        F820   1.358       .  S
C816        C817   1.411       .  A
C816        F832   1.356       .  S
C817        C818   1.411       .  A
C818        F821   1.358       .  S
C819        C822   1.409       .  A
C819        C826   1.409       .  A
C822        C823   1.405       .  A
C822        F827   1.358       .  S
C823        C824   1.410       .  A
C823        F829   1.358       .  S
C824        C825   1.407       .  A
C825        C826   1.406       .  A
C825        F828   1.358       .  S
C826        F830   1.357       .  S
C833        C834   1.406       .  A
C833        C838   1.397       .  A
C833        F851   1.358       .  S
C834        C835   1.410       .  A
C834        C839   1.490       .  S
C835        C836   1.407       .  A
C835        F840   1.357       .  S
C836        C837   1.405       .  A
C836        F852   1.357       .  S
C837        C838   1.405       .  A
C838        F841   1.358       .  S
C839        C842   1.406       .  A
C839        C846   1.409       .  A
C842        C843   1.398       .  A
C842        F847   1.358       .  S
C843        C844   1.404       .  A
C843        F849   1.358       .  S
C844        C845   1.407       .  A
C845        C846   1.408       .  A
C845        F848   1.356       .  S
C846        F850   1.358       .  S
C853        C854   1.406       .  A
C853        C858   1.400       .  A
C853        F871   1.358   1_556  S
C854        C855   1.413       .  A
C854        C859   1.499       .  S
C855        C856   1.411       .  A
C855        F860   1.357       .  S
C856        C857   1.407       .  A
C856        F872   1.357       .  S
C857        C858   1.410       .  A
C858        F861   1.358   1_556  S
C859        C862   1.407   1_556  A
C859        C866   1.413       .  A
C862        C863   1.403       .  A
C862        F867   1.357       .  S
C863        C864   1.408   1_554  A
C863        F869   1.358       .  S
C864        C865   1.404       .  A
C865        C866   1.406       .  A
C865        F868   1.357       .  S
C866        F870   1.357       .  S
C873        C874   1.411       .  A
C873        C878   1.408       .  A
C873        F891   1.358       .  S
C874        C875   1.406       .  A
C874        C879   1.499       .  S
C875        C876   1.402       .  A
C875        F880   1.358       .  S
C876        C877   1.414       .  A
C876        F892   1.358       .  S
C877        C878   1.410       .  A
C878        F881   1.357       .  S
C879        C882   1.413       .  A
C879        C886   1.407   1_554  A
C882        C883   1.407       .  A
C882        F887   1.357       .  S
C883        C884   1.405       .  A
C883        F889   1.357       .  S
C884        C885   1.408   1_554  A
C885        C886   1.401       .  A
C885        F888   1.358       .  S
C886        F890   1.358       .  S
C893        C894   1.409       .  A
C893        C898   1.400       .  A
C893        F911   1.358       .  S
C894        C895   1.414       .  A
C894        C899   1.502       .  S
C895        C896   1.408       .  A
C895        F900   1.358       .  S
C896        C897   1.407       .  A
C896        F912   1.358       .  S
C897        C898   1.408       .  A
C898        F901   1.358       .  S
C899        C902   1.410       .  A
C899        C906   1.414       .  A
C902        C903   1.402       .  A
C902        F907   1.358       .  S
C903        C904   1.406       .  A
C903        F909   1.358   1_455  S
C904        C905   1.402       .  A
C905        C906   1.406       .  A
C905        F908   1.357       .  S
C906        F910   1.357       .  S
C913        C914   1.409       .  A
C913        C918   1.402       .  A
C913        F931   1.357       .  S
C914        C915   1.414       .  A
C914        C919   1.503       .  S
C915        C916   1.407       .  A
C915        F920   1.358       .  S
C916        C917   1.408       .  A
C916        F932   1.358       .  S
C917        C918   1.408       .  A
C918        F921   1.358       .  S
C919        C922   1.414       .  A
C919        C926   1.409       .  A
C922        C923   1.406       .  A
C922        F927   1.357       .  S
C923        C924   1.406       .  A
C923        F929   1.357       .  S
C924        C925   1.409       .  A
C925        C926   1.402       .  A
C925        F928   1.358       .  S
C926        F930   1.358       .  S
C933        C934   1.413       .  A
C933        C938   1.408       .  A
C933        F951   1.357       .  S
C934        C935   1.410       .  A
C934        C939   1.504       .  S
C935        C936   1.405       .  A
C935        F940   1.358       .  S
C936        C937   1.409       .  A
C936        F952   1.358       .  S
C937        C938   1.407       .  A
C938        F941   1.357       .  S
C939        C942   1.413       .  A
C939        C946   1.411       .  A
C942        C943   1.406       .  A
C942        F947   1.357       .  S
C943        C944   1.404       .  A
C943        F949   1.356       .  S
C944        C945   1.406       .  A
C945        C946   1.403       .  A
C945        F948   1.358       .  S
C946        F950   1.358       .  S
C953        C954   1.408       .  A
C953        C958   1.402       .  A
C953        F971   1.358       .  S
C954        C955   1.413       .  A
C954        C959   1.504       .  S
C955        C956   1.411       .  A
C955        F960   1.357       .  S
C956        C957   1.409       .  A
C956        F972   1.357       .  S
C957        C958   1.407       .  A
C958        F961   1.358       .  S
C959        C962   1.410       .  A
C959        C966   1.411       .  A
C962        C963   1.403       .  A
C962        F967   1.358       .  S
C963        C964   1.407       .  A
C963        F969   1.358       .  S
C964        C965   1.410       .  A
C965        C966   1.411       .  A
C965        F968   1.358       .  S
C966        F970   1.358       .  S
C973        C974   1.413       .  A
C973        C978   1.413       .  A
C973        F991   1.358       .  S
C974        C975   1.405       .  A
C974        C979   1.504       .  S
C975        C976   1.402       .  A
C975        F980   1.358       .  S
C976        C977   1.415       .  A
C976        F992   1.358       .  S
C977        C978   1.411       .  A
C978        F981   1.357       .  S
C979        C982   1.408       .  A
C979        C986   1.414       .  A
C982        C983   1.403       .  A
C982        F987   1.357       .  S
C983        C984   1.409       .  A
C983        F989   1.358       .  S
C984        C985   1.408       .  A
C985        C986   1.409       .  A
C985        F988   1.357       .  S
C986        F990   1.357       .  S
C993        C994   1.408       .  A
C993        C998   1.403       .  A
C993       F1011   1.358       .  S
C994        C995   1.411       .  A
C994        C999   1.498       .  S
C995        C996   1.405       .  A
C995       F1000   1.358       .  S
C996        C997   1.407       .  A
C996       F1012   1.358       .  S
C997        C998   1.410       .  A
C998       F1001   1.358       .  S
C999       C1002   1.412       .  A
C999       C1006   1.407       .  A
C1002      C1003   1.406       .  A
C1002      F1007   1.357       .  S
C1003      C1004   1.406       .  A
C1003      F1009   1.357       .  S
C1004      C1005   1.408       .  A
C1005      C1006   1.401       .  A
C1005      F1008   1.357       .  S
C1006      F1010   1.358       .  S
C1013      C1014   1.412       .  A
C1013      C1018   1.407       .  A
C1013      F1031   1.357       .  S
C1014      C1015   1.407       .  A
C1014      C1019   1.496       .  S
C1015      C1016   1.401       .  A
C1015      F1020   1.358       .  S
C1016      C1017   1.407       .  A
C1016      F1032   1.358       .  S
C1017      C1018   1.405       .  A
C1018      F1021   1.357       .  S
C1019      C1022   1.405       .  A
C1019      C1026   1.412       .  A
C1022      C1023   1.399       .  A
C1022      F1027   1.358       .  S
C1023      C1024   1.409       .  A
C1023      F1029   1.356       .  S
C1024      C1025   1.409       .  A
C1025      C1026   1.409       .  A
C1025      F1028   1.358       .  S
C1026      F1030   1.358       .  S
C1033      C1034   1.405       .  A
C1033      C1038   1.395       .  A
C1033      F1051   1.358       .  S
C1034      C1035   1.402       .  A
C1034      C1039   1.473       .  S
C1035      C1036   1.399       .  A
C1035      F1040   1.357       .  S
C1036      C1037   1.405       .  A
C1036      F1052   1.358       .  S
C1037      C1038   1.399       .  A
C1038      F1041   1.352       .  S
C1039      C1042   1.403       .  A
C1039      C1046   1.401       .  A
C1042      C1043   1.404       .  A
C1042      F1047   1.358       .  S
C1043      C1044   1.412       .  A
C1043      F1049   1.358       .  S
C1044      C1045   1.408       .  A
C1045      C1046   1.390       .  A
C1045      F1048   1.358       .  S
C1046      F1050   1.359       .  S
C1053      C1054   1.399       .  A
C1053      C1058   1.395       .  A
C1053      F1071   1.358       .  S
C1054      C1055   1.406       .  A
C1054      C1059   1.469       .  S
C1055      C1056   1.400       .  A
C1055      F1060   1.358       .  S
C1056      C1057   1.402       .  A
C1056      F1072   1.355       .  S
C1057      C1058   1.406       .  A
C1058      F1061   1.357       .  S
C1059      C1062   1.400       .  A
C1059      C1066   1.402       .  A
C1062      C1063   1.392       .  A
C1062      F1067   1.358       .  S
C1063      C1064   1.409       .  A
C1063      F1069   1.359       .  S
C1064      C1065   1.410       .  A
C1065      C1066   1.401       .  A
C1065      F1068   1.357       .  S
C1066      F1070   1.357       .  S
C1073      C1074   1.407       .  A
C1073      C1078   1.400       .  A
C1073      F1091   1.358       .  S
C1074      C1075   1.413       .  A
C1074      C1079   1.503       .  S
C1075      C1076   1.409       .  A
C1075      F1080   1.357       .  S
C1076      C1077   1.410       .  A
C1076      F1092   1.357       .  S
C1077      C1078   1.409       .  A
C1078      F1081   1.357       .  S
C1079      C1082   1.409       .  A
C1079      C1086   1.412       .  A
C1082      C1083   1.406       .  A
C1082      F1087   1.358       .  S
C1083      C1084   1.412       .  A
C1083      F1089   1.358       .  S
C1084      C1085   1.406       .  A
C1085      C1086   1.404       .  A
C1085      F1088   1.358       .  S
C1086      F1090   1.358       .  S
C1093      C1094   1.405       .  A
C1093      C1098   1.403       .  A
C1093      F1111   1.358       .  S
C1094      C1095   1.410       .  A
C1094      C1099   1.497       .  S
C1095      C1096   1.408       .  A
C1095      F1100   1.358       .  S
C1096      C1097   1.410       .  A
C1096      F1112   1.357       .  S
C1097      C1098   1.414       .  A
C1098      F1101   1.358       .  S
C1099      C1102   1.412       .  A
C1099      C1106   1.406       .  A
C1102      C1103   1.409       .  A
C1102      F1107   1.357       .  S
C1103      C1104   1.408       .  A
C1103      F1109   1.357       .  S
C1104      C1105   1.408       .  A
C1105      C1106   1.400       .  A
C1105      F1108   1.358       .  S
C1106      F1110   1.358       .  S
C1113      C1114   1.405       .  A
C1113      C1118   1.401       .  A
C1113      F1131   1.358       .  S
C1114      C1115   1.410       .  A
C1114      C1119   1.493       .  S
C1115      C1116   1.408       .  A
C1115      F1120   1.358       .  S
C1116      C1117   1.406       .  A
C1116      F1132   1.356       .  S
C1117      C1118   1.407       .  A
C1118      F1121   1.357       .  S
C1119      C1122   1.405       .  A
C1119      C1126   1.411       .  A
C1122      C1123   1.401       .  A
C1122      F1127   1.358       .  S
C1123      C1124   1.407       .  A
C1123      F1129   1.358       .  S
C1124      C1125   1.405       .  A
C1125      C1126   1.406       .  A
C1125      F1128   1.357       .  S
C1126      F1130   1.357       .  S
C1133      C1134   1.413       .  A
C1133      C1138   1.408       .  A
C1133      F1151   1.357       .  S
C1134      C1135   1.409       .  A
C1134      C1139   1.506       .  S
C1135      C1136   1.404       .  A
C1135      F1140   1.358       .  S
C1136      C1137   1.410       .  A
C1136      F1152   1.358       .  S
C1137      C1138   1.408       .  A
C1138      F1141   1.357       .  S
C1139      C1142   1.411       .  A
C1139      C1146   1.411       .  A
C1142      C1143   1.408       .  A
C1142      F1147   1.358       .  S
C1143      C1144   1.410       .  A
C1143      F1149   1.358       .  S
C1144      C1145   1.410       .  A
C1145      C1146   1.406       .  A
C1145      F1148   1.358       .  S
C1146      F1150   1.358       .  S
C1153      C1154   1.405       .  A
C1153      C1158   1.398       .  A
C1153      F1171   1.358       .  S
C1154      C1155   1.412       .  A
C1154      C1159   1.494       .  S
C1155      C1156   1.408       .  A
C1155      F1160   1.358       .  S
C1156      C1157   1.409       .  A
C1156      F1172   1.357       .  S
C1157      C1158   1.407       .  A
C1158      F1161   1.358       .  S
C1159      C1162   1.411       .  A
C1159      C1166   1.404       .  A
C1162      C1163   1.406       .  A
C1162      F1167   1.357       .  S
C1163      C1164   1.408       .  A
C1163      F1169   1.357       .  S
C1164      C1165   1.416       .  A
C1165      C1166   1.400       .  A
C1165      F1168   1.358       .  S
C1166      F1170   1.358       .  S
C1173      C1174   1.411       .  A
C1173      C1178   1.403       .  A
C1173      F1191   1.358       .  S
C1174      C1175   1.415       .  A
C1174      C1179   1.509       .  S
C1175      C1176   1.409       .  A
C1175      F1180   1.357       .  S
C1176      C1177   1.408       .  A
C1176      F1192   1.357       .  S
C1177      C1178   1.409       .  A
C1178      F1181   1.358       .  S
C1179      C1182   1.413       .  A
C1179      C1186   1.412       .  A
C1182      C1183   1.403       .  A
C1182      F1187   1.357       .  S
C1183      C1184   1.406       .  A
C1183      F1189   1.358       .  S
C1184      C1185   1.411       .  A
C1185      C1186   1.408       .  A
C1185      F1188   1.358       .  S
C1186      F1190   1.358       .  S
C1193      C1194   1.405       .  A
C1193      C1198   1.394       .  A
C1193      F1211   1.358       .  S
C1194      C1195   1.401       .  A
C1194      C1199   1.464       .  S
C1195      C1196   1.393       .  A
C1195      F1200   1.358       .  S
C1196      C1197   1.402       .  A
C1196      F1212   1.357       .  S
C1197      C1198   1.399       .  A
C1198      F1201   1.352       .  S
C1199      C1202   1.400       .  A
C1199      C1206   1.402       .  A
C1202      C1203   1.395       .  A
C1202      F1207   1.357       .  S
C1203      C1204   1.409       .  A
C1203      F1209   1.357   1_545  S
C1204      C1205   1.409       .  A
C1205      C1206   1.390       .  A
C1205      F1208   1.359       .  S
C1206      F1210   1.359       .  S
C1213      C1214   1.399       .  A
C1213      C1218   1.390       .  A
C1213      F1231   1.359       .  S
C1214      C1215   1.403       .  A
C1214      C1219   1.472       .  S
C1215      C1216   1.404       .  A
C1215      F1220   1.357       .  S
C1216      C1217   1.410       .  A
C1216      F1232   1.357       .  S
C1217      C1218   1.411       .  A
C1218      F1221   1.359       .  S
C1219      C1222   1.407       .  A
C1219      C1226   1.401       .  A
C1222      C1223   1.398       .  A
C1222      F1227   1.358       .  S
C1223      C1224   1.401       .  A
C1223      F1229   1.355       .  S
C1224      C1225   1.405       .  A
C1225      C1226   1.397       .  A
C1225      F1228   1.358       .  S
C1226      F1230   1.358       .  S
C1233      C1234   1.406       .  A
C1233      C1238   1.394       .  A
C1233      F1251   1.358       .  S
C1234      C1235   1.401       .  A
C1234      C1239   1.468       .  S
C1235      C1236   1.397       .  A
C1235      F1240   1.358   1_554  S
C1236      C1237   1.405       .  A
C1236      F1252   1.356   1_554  S
C1237      C1238   1.398       .  A
C1238      F1241   1.352       .  S
C1239      C1242   1.403       .  A
C1239      C1246   1.398       .  A
C1242      C1243   1.403       .  A
C1242      F1247   1.357       .  S
C1243      C1244   1.411       .  A
C1243      F1249   1.357       .  S
C1244      C1245   1.411       .  A
C1245      C1246   1.385       .  A
C1245      F1248   1.357       .  S
C1246      F1250   1.359       .  S
C1253      C1254   1.406       .  A
C1253      C1258   1.401       .  A
C1253      F1271   1.358       .  S
C1254      C1255   1.410       .  A
C1254      C1259   1.494       .  S
C1255      C1256   1.406       .  A
C1255      F1260   1.358       .  S
C1256      C1257   1.409       .  A
C1256      F1272   1.356       .  S
C1257      C1258   1.408       .  A
C1258      F1261   1.358       .  S
C1259      C1262   1.404       .  A
C1259      C1266   1.410       .  A
C1262      C1263   1.399       .  A
C1262      F1267   1.358       .  S
C1263      C1264   1.413       .  A
C1263      F1269   1.358       .  S
C1264      C1265   1.409       .  A
C1265      C1266   1.409       .  A
C1265      F1268   1.357       .  S
C1266      F1270   1.358       .  S
C1273      C1274   1.411       .  A
C1273      C1278   1.408       .  A
C1273      F1291   1.357       .  S
C1274      C1275   1.408       .  A
C1274      C1279   1.501       .  S
C1275      C1276   1.405       .  A
C1275      F1280   1.358       .  S
C1276      C1277   1.408       .  A
C1276      F1292   1.358       .  S
C1277      C1278   1.407       .  A
C1278      F1281   1.356       .  S
C1279      C1282   1.406       .  A
C1279      C1286   1.411       .  A
C1282      C1283   1.403       .  A
C1282      F1287   1.358       .  S
C1283      C1284   1.413       .  A
C1283      F1289   1.358       .  S
C1284      C1285   1.409       .  A
C1285      C1286   1.411       .  A
C1285      F1288   1.357       .  S
C1286      F1290   1.357       .  S
C1293      C1294   1.411       .  A
C1293      C1298   1.408       .  A
C1293      F1311   1.357       .  S
C1294      C1295   1.407   1_556  A
C1294      C1299   1.500       .  S
C1295      C1296   1.403       .  A
C1295      F1300   1.358       .  S
C1296      C1297   1.409   1_554  A
C1296      F1312   1.358       .  S
C1297      C1298   1.408       .  A
C1298      F1301   1.357       .  S
C1299      C1302   1.404       .  A
C1299      C1306   1.411       .  A
C1302      C1303   1.402       .  A
C1302      F1307   1.358       .  S
C1303      C1304   1.412       .  A
C1303      F1309   1.353       .  S
C1304      C1305   1.412       .  A
C1305      C1306   1.411       .  A
C1305      F1308   1.357       .  S
C1306      F1310   1.358       .  S
C1313      C1314   1.412       .  A
C1313      C1318   1.406       .  A
C1313      F1331   1.357       .  S
C1314      C1315   1.408       .  A
C1314      C1319   1.500       .  S
C1315      C1316   1.401       .  A
C1315      F1320   1.358       .  S
C1316      C1317   1.409       .  A
C1316      F1332   1.358   1_554  S
C1317      C1318   1.407       .  A
C1318      F1321   1.356       .  S
C1319      C1322   1.407       .  A
C1319      C1326   1.411       .  A
C1322      C1323   1.404       .  A
C1322      F1327   1.358       .  S
C1323      C1324   1.411       .  A
C1323      F1329   1.354       .  S
C1324      C1325   1.409       .  A
C1325      C1326   1.406       .  A
C1325      F1328   1.358       .  S
C1326      F1330   1.358       .  S
C1333      C1334   1.399       .  A
C1333      C1338   1.393       .  A
C1333      F1351   1.358       .  S
C1334      C1335   1.406       .  A
C1334      C1339   1.466       .  S
C1335      C1336   1.400       .  A
C1335      F1340   1.358       .  S
C1336      C1337   1.401       .  A
C1336      F1352   1.357       .  S
C1337      C1338   1.406       .  A
C1338      F1341   1.357   1_545  S
C1339      C1342   1.402       .  A
C1339      C1346   1.399       .  A
C1342      C1343   1.401       .  A
C1342      F1347   1.357       .  S
C1343      C1344   1.410       .  A
C1343      F1349   1.358       .  S
C1344      C1345   1.408       .  A
C1345      C1346   1.389       .  A
C1345      F1348   1.358       .  S
C1346      F1350   1.358       .  S
C1353      C1354   1.409       .  A
C1353      C1358   1.405       .  A
C1353      F1371   1.357       .  S
C1354      C1355   1.403       .  A
C1354      C1359   1.482       .  S
C1355      C1356   1.387       .  A
C1355      F1360   1.359       .  S
C1356      C1357   1.405       .  A
C1356      F1372   1.353       .  S
C1357      C1358   1.408       .  A
C1358      F1361   1.358       .  S
C1359      C1362   1.406       .  A
C1359      C1366   1.409       .  A
C1362      C1363   1.402       .  A
C1362      F1367   1.357   1_565  S
C1363      C1364   1.407       .  A
C1363      F1369   1.358   1_565  S
C1364      C1365   1.402       .  A
C1365      C1366   1.391       .  A
C1365      F1368   1.356       .  S
C1366      F1370   1.359       .  S
C1373      C1374   1.410       .  A
C1373      C1378   1.403       .  A
C1373      F1391   1.358       .  S
C1374      C1375   1.403       .  A
C1374      C1379   1.489       .  S
C1375      C1376   1.398       .  A
C1375      F1380   1.358       .  S
C1376      C1377   1.415       .  A
C1376      F1392   1.358       .  S
C1377      C1378   1.408       .  A
C1378      F1381   1.358       .  S
C1379      C1382   1.404       .  A
C1379      C1386   1.410       .  A
C1382      C1383   1.395       .  A
C1382      F1387   1.358       .  S
C1383      C1384   1.407       .  A
C1383      F1389   1.357       .  S
C1384      C1385   1.410       .  A
C1385      C1386   1.406       .  A
C1385      F1388   1.357       .  S
C1386      F1390   1.358       .  S
C1393      C1394   1.406       .  A
C1393      C1398   1.400       .  A
C1393      F1411   1.358       .  S
C1394      C1395   1.411       .  A
C1394      C1399   1.495       .  S
C1395      C1396   1.407       .  A
C1395      F1400   1.357       .  S
C1396      C1397   1.406       .  A
C1396      F1412   1.357       .  S
C1397      C1398   1.409       .  A
C1398      F1401   1.358       .  S
C1399      C1402   1.408   1_565  A
C1399      C1406   1.409       .  A
C1402      C1403   1.403       .  A
C1402      F1407   1.358       .  S
C1403      C1404   1.409   1_545  A
C1403      F1409   1.358       .  S
C1404      C1405   1.407       .  A
C1405      C1406   1.406       .  A
C1405      F1408   1.358       .  S
C1406      F1410   1.357       .  S
C1413      C1414   1.404       .  A
C1413      C1418   1.388       .  A
C1413      F1431   1.359       .  S
C1414      C1415   1.404       .  A
C1414      C1419   1.472       .  S
C1415      C1416   1.400       .  A
C1415      F1420   1.357       .  S
C1416      C1417   1.407       .  A
C1416      F1432   1.358       .  S
C1417      C1418   1.402       .  A
C1418      F1421   1.355       .  S
C1419      C1422   1.403       .  A
C1419      C1426   1.404       .  A
C1422      C1423   1.389       .  A
C1422      F1427   1.359       .  S
C1423      C1424   1.403       .  A
C1423      F1429   1.354       .  S
C1424      C1425   1.408       .  A
C1425      C1426   1.401       .  A
C1425      F1428   1.358       .  S
C1426      F1430   1.358       .  S
C1433      C1434   1.405       .  A
C1433      C1438   1.400       .  A
C1433      F1451   1.357       .  S
C1434      C1435   1.398       .  A
C1434      C1439   1.462       .  S
C1435      C1436   1.386       .  A
C1435      F1440   1.359       .  S
C1436      C1437   1.409       .  A
C1436      F1452   1.357       .  S
C1437      C1438   1.405       .  A
C1438      F1441   1.358       .  S
C1439      C1442   1.405       .  A
C1439      C1446   1.396       .  A
C1442      C1443   1.401       .  A
C1442      F1447   1.357       .  S
C1443      C1444   1.406       .  A
C1443      F1449   1.357       .  S
C1444      C1445   1.412       .  A
C1445      C1446   1.385       .  A
C1445      F1448   1.358       .  S
C1446      F1450   1.359       .  S
C1453      C1454   1.411       .  A
C1453      C1458   1.406       .  A
C1453      F1471   1.358       .  S
C1454      C1455   1.411       .  A
C1454      C1459   1.508       .  S
C1455      C1456   1.411       .  A
C1455      F1460   1.358       .  S
C1456      C1457   1.412       .  A
C1456      F1472   1.358       .  S
C1457      C1458   1.409       .  A
C1458      F1461   1.358       .  S
C1459      C1462   1.408       .  A
C1459      C1466   1.413       .  A
C1462      C1463   1.403       .  A
C1462      F1467   1.358       .  S
C1463      C1464   1.410       .  A
C1463      F1469   1.357       .  S
C1464      C1465   1.411       .  A
C1465      C1466   1.412       .  A
C1465      F1468   1.357       .  S
C1466      F1470   1.357       .  S
C1473      C1474   1.413       .  A
C1473      C1478   1.411       .  A
C1473      F1491   1.357       .  S
C1474      C1475   1.407       .  A
C1474      C1479   1.508       .  S
C1475      C1476   1.404       .  A
C1475      F1480   1.358       .  S
C1476      C1477   1.417       .  A
C1476      F1492   1.358       .  S
C1477      C1478   1.410       .  A
C1478      F1481   1.357       .  S
C1479      C1482   1.409       .  A
C1479      C1486   1.415       .  A
C1482      C1483   1.401       .  A
C1482      F1487   1.357       .  S
C1483      C1484   1.407       .  A
C1483      F1489   1.358       .  S
C1484      C1485   1.408       .  A
C1485      C1486   1.410       .  A
C1485      F1488   1.358       .  S
C1486      F1490   1.357       .  S
C1493      C1494   1.405       .  A
C1493      C1498   1.398       .  A
C1493      F1511   1.358       .  S
C1494      C1495   1.412       .  A
C1494      C1499   1.496       .  S
C1495      C1496   1.407       .  A
C1495      F1500   1.357       .  S
C1496      C1497   1.408       .  A
C1496      F1512   1.357       .  S
C1497      C1498   1.414       .  A
C1498      F1501   1.358       .  S
C1499      C1502   1.413       .  A
C1499      C1506   1.408       .  A
C1502      C1503   1.404       .  A
C1502      F1507   1.358       .  S
C1503      C1504   1.405       .  A
C1503      F1509   1.357       .  S
C1504      C1505   1.407       .  A
C1505      C1506   1.400       .  A
C1505      F1508   1.358       .  S
C1506      F1510   1.358       .  S
C1513      C1514   1.409       .  A
C1513      C1518   1.403       .  A
C1513      F1531   1.358       .  S
C1514      C1515   1.413       .  A
C1514      C1519   1.505       .  S
C1515      C1516   1.410       .  A
C1515      F1520   1.358       .  S
C1516      C1517   1.408       .  A
C1516      F1532   1.356       .  S
C1517      C1518   1.410       .  A
C1518      F1521   1.358       .  S
C1519      C1522   1.410       .  A
C1519      C1526   1.414       .  A
C1522      C1523   1.404       .  A
C1522      F1527   1.358       .  S
C1523      C1524   1.407       .  A
C1523      F1529   1.358   1_545  S
C1524      C1525   1.404       .  A
C1525      C1526   1.406       .  A
C1525      F1528   1.357       .  S
C1526      F1530   1.357       .  S
C1533      C1534   1.416       .  A
C1533      C1538   1.412       .  A
C1533      F1551   1.357       .  S
C1534      C1535   1.411       .  A
C1534      C1539   1.509       .  S
C1535      C1536   1.401       .  A
C1535      F1540   1.357   1_545  S
C1536      C1537   1.405       .  A
C1536      F1552   1.358   1_545  S
C1537      C1538   1.407       .  A
C1538      F1541   1.357       .  S
C1539      C1542   1.413       .  A
C1539      C1546   1.413   1_545  A
C1542      C1543   1.410       .  A
C1542      F1547   1.357       .  S
C1543      C1544   1.408       .  A
C1543      F1549   1.358       .  S
C1544      C1545   1.406   1_545  A
C1545      C1546   1.404       .  A
C1545      F1548   1.358       .  S
C1546      F1550   1.358       .  S
C1553      C1554   1.411       .  A
C1553      C1558   1.406       .  A
C1553      F1571   1.358       .  S
C1554      C1555   1.411       .  A
C1554      C1559   1.506       .  S
C1555      C1556   1.409       .  A
C1555      F1560   1.357       .  S
C1556      C1557   1.410       .  A
C1556      F1572   1.358       .  S
C1557      C1558   1.409       .  A
C1558      F1561   1.358       .  S
C1559      C1562   1.409       .  A
C1559      C1566   1.413       .  A
C1562      C1563   1.405       .  A
C1562      F1567   1.358       .  S
C1563      C1564   1.409       .  A
C1563      F1569   1.358       .  S
C1564      C1565   1.409       .  A
C1565      C1566   1.409       .  A
C1565      F1568   1.356       .  S
C1566      F1570   1.357       .  S
C1573      C1574   1.408       .  A
C1573      C1578   1.403       .  A
C1573      F1591   1.358       .  S
C1574      C1575   1.400       .  A
C1574      C1579   1.471       .  S
C1575      C1576   1.388       .  A
C1575      F1580   1.359       .  S
C1576      C1577   1.406       .  A
C1576      F1592   1.357       .  S
C1577      C1578   1.403       .  A
C1578      F1581   1.358       .  S
C1579      C1582   1.403       .  A
C1579      C1586   1.403       .  A
C1582      C1583   1.389       .  A
C1582      F1587   1.359       .  S
C1583      C1584   1.407       .  A
C1583      F1589   1.358       .  S
C1584      C1585   1.410       .  A
C1585      C1586   1.401       .  A
C1585      F1588   1.357       .  S
C1586      F1590   1.357       .  S
C1593      C1594   1.404       .  A
C1593      C1598   1.404       .  A
C1593      F1611   1.357       .  S
C1594      C1595   1.398       .  A
C1594      C1599   1.468       .  S
C1595      C1596   1.388       .  A
C1595      F1600   1.359       .  S
C1596      C1597   1.411       .  A
C1596      F1612   1.359       .  S
C1597      C1598   1.410       .  A
C1598      F1601   1.357       .  S
C1599      C1602   1.399       .  A
C1599      C1606   1.405       .  A
C1602      C1603   1.392       .  A
C1602      F1607   1.359       .  S
C1603      C1604   1.412       .  A
C1603      F1609   1.359       .  S
C1604      C1605   1.405       .  A
C1605      C1606   1.401       .  A
C1605      F1608   1.357       .  S
C1606      F1610   1.357       .  S
C1613      C1614   1.398       .  A
C1613      C1618   1.384       .  A
C1613      F1631   1.359       .  S
C1614      C1615   1.406       .  A
C1614      C1619   1.466       .  S
C1615      C1616   1.403       .  A
C1615      F1620   1.357       .  S
C1616      C1617   1.406       .  A
C1616      F1632   1.357       .  S
C1617      C1618   1.408       .  A
C1618      F1621   1.357       .  S
C1619      C1622   1.401       .  A
C1619      C1626   1.404       .  A
C1622      C1623   1.394       .  A
C1622      F1627   1.358       .  S
C1623      C1624   1.408       .  A
C1623      F1629   1.359       .  S
C1624      C1625   1.404       .  A
C1625      C1626   1.395       .  A
C1625      F1628   1.357       .  S
C1626      F1630   1.358       .  S
C1633      C1634   1.407       .  A
C1633      C1638   1.404       .  A
C1633      F1651   1.358       .  S
C1634      C1635   1.413       .  A
C1634      C1639   1.504       .  S
C1635      C1636   1.409       .  A
C1635      F1640   1.358       .  S
C1636      C1637   1.409       .  A
C1636      F1652   1.357       .  S
C1637      C1638   1.414       .  A
C1638      F1641   1.358       .  S
C1639      C1642   1.414       .  A
C1639      C1646   1.408   1_545  A
C1642      C1643   1.411       .  A
C1642      F1647   1.357       .  S
C1643      C1644   1.407       .  A
C1643      F1649   1.357       .  S
C1644      C1645   1.407   1_545  A
C1645      C1646   1.401       .  A
C1645      F1648   1.358       .  S
C1646      F1650   1.357       .  S
C1653      C1654   1.406       .  A
C1653      C1658   1.401       .  A
C1653      F1671   1.358       .  S
C1654      C1655   1.414       .  A
C1654      C1659   1.503       .  S
C1655      C1656   1.409       .  A
C1655      F1660   1.357       .  S
C1656      C1657   1.408       .  A
C1656      F1672   1.357       .  S
C1657      C1658   1.416       .  A
C1658      F1661   1.358       .  S
C1659      C1662   1.416       .  A
C1659      C1666   1.409   1_565  A
C1662      C1663   1.409       .  A
C1662      F1667   1.357       .  S
C1663      C1664   1.405       .  A
C1663      F1669   1.357       .  S
C1664      C1665   1.406   1_565  A
C1665      C1666   1.399       .  A
C1665      F1668   1.358       .  S
C1666      F1670   1.357       .  S
C1673      C1674   1.409       .  A
C1673      C1678   1.404       .  A
C1673      F1691   1.357       .  S
C1674      C1675   1.401       .  A
C1674      C1679   1.478       .  S
C1675      C1676   1.391       .  A
C1675      F1680   1.359       .  S
C1676      C1677   1.410       .  A
C1676      F1692   1.359       .  S
C1677      C1678   1.405       .  A
C1678      F1681   1.358       .  S
C1679      C1682   1.402       .  A
C1679      C1686   1.408       .  A
C1682      C1683   1.394       .  A
C1682      F1687   1.358       .  S
C1683      C1684   1.408       .  A
C1683      F1689   1.358       .  S
C1684      C1685   1.405       .  A
C1685      C1686   1.402       .  A
C1685      F1688   1.357       .  S
C1686      F1690   1.358       .  S
C1693      C1694   1.408       .  A
C1693      C1698   1.398       .  A
C1693      F1711   1.358       .  S
C1694      C1695   1.404       .  A
C1694      C1699   1.473       .  S
C1695      C1696   1.389       .  A
C1695      F1700   1.358       .  S
C1696      C1697   1.402       .  A
C1696      F1712   1.359       .  S
C1697      C1698   1.402       .  A
C1698      F1701   1.358       .  S
C1699      C1702   1.406       .  A
C1699      C1706   1.401       .  A
C1702      C1703   1.401       .  A
C1702      F1707   1.358       .  S
C1703      C1704   1.407       .  A
C1703      F1709   1.357       .  S
C1704      C1705   1.411       .  A
C1705      C1706   1.390       .  A
C1705      F1708   1.358       .  S
C1706      F1710   1.359       .  S
C1713      C1714   1.406       .  A
C1713      C1718   1.400       .  A
C1713      F1731   1.357       .  S
C1714      C1715   1.398       .  A
C1714      C1719   1.466       .  S
C1715      C1716   1.390       .  A
C1715      F1720   1.359       .  S
C1716      C1717   1.409       .  A
C1716      F1732   1.358       .  S
C1717      C1718   1.402       .  A
C1718      F1721   1.357       .  S
C1719      C1722   1.401       .  A
C1719      C1726   1.400       .  A
C1722      C1723   1.391       .  A
C1722      F1727   1.359       .  S
C1723      C1724   1.408       .  A
C1723      F1729   1.358       .  S
C1724      C1725   1.412       .  A
C1725      C1726   1.398       .  A
C1725      F1728   1.358       .  S
C1726      F1730   1.357       .  S
C1733      C1734   1.405       .  A
C1733      C1738   1.399       .  A
C1733      F1751   1.357       .  S
C1734      C1735   1.399       .  A
C1734      C1739   1.464       .  S
C1735      C1736   1.389       .  A
C1735      F1740   1.359       .  S
C1736      C1737   1.406       .  A
C1736      F1752   1.358       .  S
C1737      C1738   1.404       .  A
C1738      F1741   1.358       .  S
C1739      C1742   1.403       .  A
C1739      C1746   1.397       .  A
C1742      C1743   1.400       .  A
C1742      F1747   1.357       .  S
C1743      C1744   1.409       .  A
C1743      F1749   1.357       .  S
C1744      C1745   1.413       .  A
C1745      C1746   1.388       .  A
C1745      F1748   1.359       .  S
C1746      F1750   1.359       .  S
C1753      C1754   1.414       .  A
C1753      C1758   1.409       .  A
C1753      F1771   1.358       .  S
C1754      C1755   1.410       .  A
C1754      C1759   1.511       .  S
C1755      C1756   1.406       .  A
C1755      F1760   1.357       .  S
C1756      C1757   1.411       .  A
C1756      F1772   1.357       .  S
C1757      C1758   1.412       .  A
C1758      F1761   1.357       .  S
C1759      C1762   1.408       .  A
C1759      C1766   1.415       .  A
C1762      C1763   1.402       .  A
C1762      F1767   1.357       .  S
C1763      C1764   1.415       .  A
C1763      F1769   1.358       .  S
C1764      C1765   1.412       .  A
C1765      C1766   1.413       .  A
C1765      F1768   1.357       .  S
C1766      F1770   1.358       .  S
C1773      C1774   1.414       .  A
C1773      C1778   1.407       .  A
C1773      F1791   1.357       .  S
C1774      C1775   1.410       .  A
C1774      C1779   1.504       .  S
C1775      C1776   1.403       .  A
C1775      F1780   1.358       .  S
C1776      C1777   1.407       .  A
C1776      F1792   1.358       .  S
C1777      C1778   1.406       .  A
C1778      F1781   1.356       .  S
C1779      C1782   1.406       .  A
C1779      C1786   1.413       .  A
C1782      C1783   1.401       .  A
C1782      F1787   1.358       .  S
C1783      C1784   1.415       .  A
C1783      F1789   1.358       .  S
C1784      C1785   1.409       .  A
C1785      C1786   1.410       .  A
C1785      F1788   1.357       .  S
C1786      F1790   1.357       .  S
C1793      C1794   1.413       .  A
C1793      C1798   1.408       .  A
C1793      F1811   1.357       .  S
C1794      C1795   1.409       .  A
C1794      C1799   1.501       .  S
C1795      C1796   1.402       .  A
C1795      F1800   1.358       .  S
C1796      C1797   1.407       .  A
C1796      F1812   1.358       .  S
C1797      C1798   1.405       .  A
C1798      F1801   1.357       .  S
C1799      C1802   1.408       .  A
C1799      C1806   1.411       .  A
C1802      C1803   1.404       .  A
C1802      F1807   1.358       .  S
C1803      C1804   1.409       .  A
C1803      F1809   1.355       .  S
C1804      C1805   1.409       .  A
C1805      C1806   1.407       .  A
C1805      F1808   1.358       .  S
C1806      F1810   1.358       .  S
C1813      C1814   1.417       .  A
C1813      C1818   1.411       .  A
C1813      F1831   1.357       .  S
C1814      C1815   1.411       .  A
C1814      C1819   1.512       .  S
C1815      C1816   1.403       .  A
C1815      F1820   1.357       .  S
C1816      C1817   1.405       .  A
C1816      F1832   1.358       .  S
C1817      C1818   1.406       .  A
C1818      F1821   1.357       .  S
C1819      C1822   1.416       .  A
C1819      C1826   1.409       .  A
C1822      C1823   1.412       .  A
C1822      F1827   1.357       .  S
C1823      C1824   1.407       .  A
C1823      F1829   1.357       .  S
C1824      C1825   1.413       .  A
C1825      C1826   1.404       .  A
C1825      F1828   1.358       .  S
C1826      F1830   1.358       .  S
C1833      C1834   1.415       .  A
C1833      C1838   1.409       .  A
C1833      F1851   1.357       .  S
C1834      C1835   1.411       .  A
C1834      C1839   1.506       .  S
C1835      C1836   1.400       .  A
C1835      F1840   1.358       .  S
C1836      C1837   1.404       .  A
C1836      F1852   1.358       .  S
C1837      C1838   1.406       .  A
C1838      F1841   1.356       .  S
C1839      C1842   1.413       .  A
C1839      C1846   1.414       .  A
C1842      C1843   1.401       .  A
C1842      F1847   1.358       .  S
C1843      C1844   1.403       .  A
C1843      F1849   1.358       .  S
C1844      C1845   1.407       .  A
C1845      C1846   1.408       .  A
C1845      F1848   1.357       .  S
C1846      F1850   1.357       .  S
C1853      C1854   1.413       .  A
C1853      C1858   1.411       .  A
C1853      F1871   1.358       .  S
C1854      C1855   1.407       .  A
C1854      C1859   1.502       .  S
C1855      C1856   1.401       .  A
C1855      F1860   1.358       .  S
C1856      C1857   1.407       .  A
C1856      F1872   1.357       .  S
C1857      C1858   1.410       .  A
C1858      F1861   1.357       .  S
C1859      C1862   1.410       .  A
C1859      C1866   1.410       .  A
C1862      C1863   1.408       .  A
C1862      F1867   1.357       .  S
C1863      C1864   1.409       .  A
C1863      F1869   1.358       .  S
C1864      C1865   1.408       .  A
C1865      C1866   1.404       .  A
C1865      F1868   1.358       .  S
C1866      F1870   1.358       .  S
C1873      C1874   1.398       .  A
C1873      C1878   1.390       .  A
C1873      F1891   1.358       .  S
C1874      C1875   1.406       .  A
C1874      C1879   1.464       .  S
C1875      C1876   1.400       .  A
C1875      F1880   1.358       .  S
C1876      C1877   1.402       .  A
C1876      F1892   1.357       .  S
C1877      C1878   1.404       .  A
C1878      F1881   1.358       .  S
C1879      C1882   1.401       .  A
C1879      C1886   1.398       .  A
C1882      C1883   1.400       .  A
C1882      F1887   1.357       .  S
C1883      C1884   1.410       .  A
C1883      F1889   1.357       .  S
C1884      C1885   1.412       .  A
C1885      C1886   1.389       .  A
C1885      F1888   1.359       .  S
C1886      F1890   1.359       .  S
C1893      C1894   1.402       .  A
C1893      C1898   1.390       .  A
C1893      F1911   1.358       .  S
C1894      C1895   1.402       .  A
C1894      C1899   1.468       .  S
C1895      C1896   1.399       .  A
C1895      F1900   1.357       .  S
C1896      C1897   1.409       .  A
C1896      F1912   1.358       .  S
C1897      C1898   1.406       .  A
C1898      F1901   1.358       .  S
C1899      C1902   1.407       .  A
C1899      C1906   1.400       .  A
C1902      C1903   1.401       .  A
C1902      F1907   1.358       .  S
C1903      C1904   1.402       .  A
C1903      F1909   1.357       .  S
C1904      C1905   1.405       .  A
C1905      C1906   1.390       .  A
C1905      F1908   1.357       .  S
C1906      F1910   1.359       .  S
C1913      C1914   1.400       .  A
C1913      C1918   1.390       .  A
C1913      F1931   1.359       .  S
C1914      C1915   1.401       .  A
C1914      C1919   1.464       .  S
C1915      C1916   1.401       .  A
C1915      F1920   1.358       .  S
C1916      C1917   1.410       .  A
C1916      F1932   1.358       .  S
C1917      C1918   1.406       .  A
C1918      F1921   1.358       .  S
C1919      C1922   1.400       .  A
C1919      C1926   1.404       .  A
C1922      C1923   1.394       .  A
C1922      F1927   1.357   1_554  S
C1923      C1924   1.403       .  A
C1923      F1929   1.358   1_554  S
C1924      C1925   1.400       .  A
C1925      C1926   1.395       .  A
C1925      F1928   1.353       .  S
C1926      F1930   1.358       .  S
C1933      C1934   1.415       .  A
C1933      C1938   1.407       .  A
C1933      F1951   1.357       .  S
C1934      C1935   1.409   1_554  A
C1934      C1939   1.505       .  S
C1935      C1936   1.401       .  A
C1935      F1940   1.358       .  S
C1936      C1937   1.409   1_556  A
C1936      F1952   1.357       .  S
C1937      C1938   1.407       .  A
C1938      F1941   1.357       .  S
C1939      C1942   1.407       .  A
C1939      C1946   1.415       .  A
C1942      C1943   1.399       .  A
C1942      F1947   1.357       .  S
C1943      C1944   1.415       .  A
C1943      F1949   1.358       .  S
C1944      C1945   1.409       .  A
C1945      C1946   1.409       .  A
C1945      F1948   1.357       .  S
C1946      F1950   1.358       .  S
C1953      C1954   1.408       .  A
C1953      C1958   1.400       .  A
C1953      F1971   1.358   1_556  S
C1954      C1955   1.414       .  A
C1954      C1959   1.501       .  S
C1955      C1956   1.409       .  A
C1955      F1960   1.357       .  S
C1956      C1957   1.407       .  A
C1956      F1972   1.358       .  S
C1957      C1958   1.407       .  A
C1958      F1961   1.357   1_556  S
C1959      C1962   1.414       .  A
C1959      C1966   1.409       .  A
C1962      C1963   1.406       .  A
C1962      F1967   1.358       .  S
C1963      C1964   1.403       .  A
C1963      F1969   1.357       .  S
C1964      C1965   1.407       .  A
C1965      C1966   1.403       .  A
C1965      F1968   1.358   1_556  S
C1966      F1970   1.357   1_556  S
C1973      C1974   1.410       .  A
C1973      C1978   1.409       .  A
C1973      F1991   1.357       .  S
C1974      C1975   1.408       .  A
C1974      C1979   1.498       .  S
C1975      C1976   1.406       .  A
C1975      F1980   1.358       .  S
C1976      C1977   1.408       .  A
C1976      F1992   1.358       .  S
C1977      C1978   1.406       .  A
C1978      F1981   1.357       .  S
C1979      C1982   1.409       .  A
C1979      C1986   1.408       .  A
C1982      C1983   1.407       .  A
C1982      F1987   1.357       .  S
C1983      C1984   1.408       .  A
C1983      F1989   1.356       .  S
C1984      C1985   1.409       .  A
C1985      C1986   1.405       .  A
C1985      F1988   1.358       .  S
C1986      F1990   1.358       .  S
C1993      C1994   1.413       .  A
C1993      C1998   1.409       .  A
C1993      F2011   1.358       .  S
C1994      C1995   1.405       .  A
C1994      C1999   1.497       .  S
C1995      C1996   1.397       .  A
C1995      F2000   1.358       .  S
C1996      C1997   1.411       .  A
C1996      F2012   1.358       .  S
C1997      C1998   1.409       .  A
C1998      F2001   1.358       .  S
C1999      C2002   1.408       .  A
C1999      C2006   1.414       .  A
C2002      C2003   1.401       .  A
C2002      F2007   1.358       .  S
C2003      C2004   1.407       .  A
C2003      F2009   1.358       .  S
C2004      C2005   1.402       .  A
C2005      C2006   1.404       .  A
C2005      F2008   1.357       .  S
C2006      F2010   1.357       .  S
C2013      C2014   1.411       .  A
C2013      C2018   1.406       .  A
C2013      F2031   1.358       .  S
C2014      C2015   1.411       .  A
C2014      C2019   1.503       .  S
C2015      C2016   1.405       .  A
C2015      F2020   1.357       .  S
C2016      C2017   1.405       .  A
C2016      F2032   1.357       .  S
C2017      C2018   1.409       .  A
C2018      F2021   1.358       .  S
C2019      C2022   1.412       .  A
C2019      C2026   1.409       .  A
C2022      C2023   1.405       .  A
C2022      F2027   1.357       .  S
C2023      C2024   1.405       .  A
C2023      F2029   1.354       .  S
C2024      C2025   1.409       .  A
C2025      C2026   1.405       .  A
C2025      F2028   1.358       .  S
C2026      F2030   1.358       .  S
C2033      C2034   1.412       .  A
C2033      C2038   1.410       .  A
C2033      F2051   1.357       .  S
C2034      C2035   1.406       .  A
C2034      C2039   1.502       .  S
C2035      C2036   1.405       .  A
C2035      F2040   1.358       .  S
C2036      C2037   1.415       .  A
C2036      F2052   1.358       .  S
C2037      C2038   1.408       .  A
C2038      F2041   1.357       .  S
C2039      C2042   1.408       .  A
C2039      C2046   1.412       .  A
C2042      C2043   1.404       .  A
C2042      F2047   1.358       .  S
C2043      C2044   1.408       .  A
C2043      F2049   1.358       .  S
C2044      C2045   1.407       .  A
C2045      C2046   1.409       .  A
C2045      F2048   1.356       .  S
C2046      F2050   1.357       .  S
C2053      C2054   1.409       .  A
C2053      C2058   1.399       .  A
C2053      F2071   1.358       .  S
C2054      C2055   1.415       .  A
C2054      C2059   1.504       .  S
C2055      C2056   1.410       .  A
C2055      F2060   1.357       .  S
C2056      C2057   1.404       .  A
C2056      F2072   1.357       .  S
C2057      C2058   1.405       .  A
C2058      F2061   1.359       .  S
C2059      C2062   1.411       .  A
C2059      C2066   1.412       .  A
C2062      C2063   1.402       .  A
C2062      F2067   1.358       .  S
C2063      C2064   1.405       .  A
C2063      F2069   1.358       .  S
C2064      C2065   1.409       .  A
C2065      C2066   1.409       .  A
C2065      F2068   1.358       .  S
C2066      F2070   1.358       .  S
C2073      C2074   1.412       .  A
C2073      C2078   1.407       .  A
C2073      F2091   1.358       .  S
C2074      C2075   1.408       .  A
C2074      C2079   1.501       .  S
C2075      C2076   1.402       .  A
C2075      F2080   1.358       .  S
C2076      C2077   1.408       .  A
C2076      F2092   1.358       .  S
C2077      C2078   1.408       .  A
C2078      F2081   1.358       .  S
C2079      C2082   1.408       .  A
C2079      C2086   1.413       .  A
C2082      C2083   1.403       .  A
C2082      F2087   1.358       .  S
C2083      C2084   1.408       .  A
C2083      F2089   1.358       .  S
C2084      C2085   1.407       .  A
C2085      C2086   1.406       .  A
C2085      F2088   1.356       .  S
C2086      F2090   1.358       .  S
C2093      C2094   1.404       .  A
C2093      C2098   1.389       .  A
C2093      F2111   1.359       .  S
C2094      C2095   1.405       .  A
C2094      C2099   1.476       .  S
C2095      C2096   1.403       .  A
C2095      F2100   1.358       .  S
C2096      C2097   1.409       .  A
C2096      F2112   1.358       .  S
C2097      C2098   1.402       .  A
C2098      F2101   1.355       .  S
C2099      C2102   1.406       .  A
C2099      C2106   1.403       .  A
C2102      C2103   1.391       .  A
C2102      F2107   1.358       .  S
C2103      C2104   1.402       .  A
C2103      F2109   1.356       .  S
C2104      C2105   1.410       .  A
C2105      C2106   1.401       .  A
C2105      F2108   1.358       .  S
C2106      F2110   1.358       .  S
C2113      C2114   1.399       .  A
C2113      C2118   1.396       .  A
C2113      F2131   1.357       .  S
C2114      C2115   1.401       .  A
C2114      C2119   1.463       .  S
C2115      C2116   1.391       .  A
C2115      F2120   1.359       .  S
C2116      C2117   1.407       .  A
C2116      F2132   1.358       .  S
C2117      C2118   1.409       .  A
C2118      F2121   1.358       .  S
C2119      C2122   1.399       .  A
C2119      C2126   1.405       .  A
C2122      C2123   1.392       .  A
C2122      F2127   1.358       .  S
C2123      C2124   1.405       .  A
C2123      F2129   1.358       .  S
C2124      C2125   1.400       .  A
C2125      C2126   1.397       .  A
C2125      F2128   1.357       .  S
C2126      F2130   1.358       .  S
C2133      C2134   1.405       .  A
C2133      C2138   1.391       .  A
C2133      F2151   1.359       .  S
C2134      C2135   1.403       .  A
C2134      C2139   1.472       .  S
C2135      C2136   1.397       .  A
C2135      F2140   1.357       .  S
C2136      C2137   1.406       .  A
C2136      F2152   1.358       .  S
C2137      C2138   1.403       .  A
C2138      F2141   1.357       .  S
C2139      C2142   1.403       .  A
C2139      C2146   1.404       .  A
C2142      C2143   1.398       .  A
C2142      F2147   1.358       .  S
C2143      C2144   1.406       .  A
C2143      F2149   1.358   1_455  S
C2144      C2145   1.404       .  A
C2145      C2146   1.391       .  A
C2145      F2148   1.356       .  S
C2146      F2150   1.359       .  S
C2153      C2154   1.405       .  A
C2153      C2158   1.402       .  A
C2153      F2171   1.358   1_655  S
C2154      C2155   1.413       .  A
C2154      C2159   1.503       .  S
C2155      C2156   1.413       .  A
C2155      F2160   1.358       .  S
C2156      C2157   1.410       .  A
C2156      F2172   1.357       .  S
C2157      C2158   1.412       .  A
C2158      F2161   1.358   1_655  S
C2159      C2162   1.414       .  A
C2159      C2166   1.408   1_655  A
C2162      C2163   1.409       .  A
C2162      F2167   1.357       .  S
C2163      C2164   1.404       .  A
C2163      F2169   1.357       .  S
C2164      C2165   1.406   1_655  A
C2165      C2166   1.403       .  A
C2165      F2168   1.358       .  S
C2166      F2170   1.357       .  S
C2173      C2174   1.409       .  A
C2173      C2178   1.401       .  A
C2173      F2191   1.358       .  S
C2174      C2175   1.415       .  A
C2174      C2179   1.504       .  S
C2175      C2176   1.411       .  A
C2175      F2180   1.358       .  S
C2176      C2177   1.407       .  A
C2176      F2192   1.357       .  S
C2177      C2178   1.406       .  A
C2178      F2181   1.358       .  S
C2179      C2182   1.409       .  A
C2179      C2186   1.414       .  A
C2182      C2183   1.405       .  A
C2182      F2187   1.357       .  S
C2183      C2184   1.408       .  A
C2183      F2189   1.358       .  S
C2184      C2185   1.406       .  A
C2185      C2186   1.407       .  A
C2185      F2188   1.357       .  S
C2186      F2190   1.358       .  S
C2193      C2194   1.408       .  A
C2193      C2198   1.402       .  A
C2193      F2211   1.358       .  S
C2194      C2195   1.414       .  A
C2194      C2199   1.507       .  S
C2195      C2196   1.412       .  A
C2195      F2200   1.357       .  S
C2196      C2197   1.410       .  A
C2196      F2212   1.358       .  S
C2197      C2198   1.411       .  A
C2198      F2201   1.358       .  S
C2199      C2202   1.410       .  A
C2199      C2206   1.414       .  A
C2202      C2203   1.405       .  A
C2202      F2207   1.357       .  S
C2203      C2204   1.407       .  A
C2203      F2209   1.358       .  S
C2204      C2205   1.404       .  A
C2205      C2206   1.407       .  A
C2205      F2208   1.356       .  S
C2206      F2210   1.357       .  S
C2213      C2214   1.404       .  A
C2213      C2218   1.399       .  A
C2213      F2231   1.358       .  S
C2214      C2215   1.405       .  A
C2214      C2219   1.471       .  S
C2215      C2216   1.387       .  A
C2215      F2220   1.359       .  S
C2216      C2217   1.400       .  A
C2216      F2232   1.355       .  S
C2217      C2218   1.408       .  A
C2218      F2221   1.358       .  S
C2219      C2222   1.405       .  A
C2219      C2226   1.404       .  A
C2222      C2223   1.387       .  A
C2222      F2227   1.359       .  S
C2223      C2224   1.402       .  A
C2223      F2229   1.357       .  S
C2224      C2225   1.407       .  A
C2225      C2226   1.398       .  A
C2225      F2228   1.358       .  S
C2226      F2230   1.358       .  S
C2233      C2234   1.399       .  A
C2233      C2238   1.394       .  A
C2233      F2251   1.358       .  S
C2234      C2235   1.402       .  A
C2234      C2239   1.459       .  S
C2235      C2236   1.393       .  A
C2235      F2240   1.358       .  S
C2236      C2237   1.400       .  A
C2236      F2252   1.351       .  S
C2237      C2238   1.404       .  A
C2238      F2241   1.357       .  S
C2239      C2242   1.402       .  A
C2239      C2246   1.399       .  A
C2242      C2243   1.391       .  A
C2242      F2247   1.358       .  S
C2243      C2244   1.403       .  A
C2243      F2249   1.358       .  S
C2244      C2245   1.408       .  A
C2245      C2246   1.395       .  A
C2245      F2248   1.358       .  S
C2246      F2250   1.358       .  S
C2253      C2254   1.406       .  A
C2253      C2258   1.401       .  A
C2253      F2271   1.358       .  S
C2254      C2255   1.413       .  A
C2254      C2259   1.500       .  S
C2255      C2256   1.410       .  A
C2255      F2260   1.357       .  S
C2256      C2257   1.407       .  A
C2256      F2272   1.357       .  S
C2257      C2258   1.407       .  A
C2258      F2261   1.357       .  S
C2259      C2262   1.412       .  A
C2259      C2266   1.405       .  A
C2262      C2263   1.410       .  A
C2262      F2267   1.358       .  S
C2263      C2264   1.409       .  A
C2263      F2269   1.357       .  S
C2264      C2265   1.415       .  A
C2265      C2266   1.403       .  A
C2265      F2268   1.358       .  S
C2266      F2270   1.358       .  S
C2273      C2274   1.413       .  A
C2273      C2278   1.409       .  A
C2273      F2291   1.357       .  S
C2274      C2275   1.409       .  A
C2274      C2279   1.508       .  S
C2275      C2276   1.405       .  A
C2275      F2280   1.358       .  S
C2276      C2277   1.414       .  A
C2276      F2292   1.357       .  S
C2277      C2278   1.409       .  A
C2278      F2281   1.357       .  S
C2279      C2282   1.411       .  A
C2279      C2286   1.416       .  A
C2282      C2283   1.402       .  A
C2282      F2287   1.357       .  S
C2283      C2284   1.406       .  A
C2283      F2289   1.358       .  S
C2284      C2285   1.405       .  A
C2285      C2286   1.410       .  A
C2285      F2288   1.357       .  S
C2286      F2290   1.357       .  S
C2293      C2294   1.408       .  A
C2293      C2298   1.401       .  A
C2293      F2311   1.357       .  S
C2294      C2295   1.414       .  A
C2294      C2299   1.502       .  S
C2295      C2296   1.407       .  A
C2295      F2300   1.358       .  S
C2296      C2297   1.407       .  A
C2296      F2312   1.358       .  S
C2297      C2298   1.410       .  A
C2298      F2301   1.358       .  S
C2299      C2302   1.414       .  A
C2299      C2306   1.408       .  A
C2302      C2303   1.406       .  A
C2302      F2307   1.357       .  S
C2303      C2304   1.406       .  A
C2303      F2309   1.357       .  S
C2304      C2305   1.407       .  A
C2305      C2306   1.400       .  A
C2305      F2308   1.358       .  S
C2306      F2310   1.357       .  S
C2313      C2314   1.408       .  A
C2313      C2318   1.401       .  A
C2313      F2331   1.358       .  S
C2314      C2315   1.412       .  A
C2314      C2319   1.499       .  S
C2315      C2316   1.408       .  A
C2315      F2320   1.357       .  S
C2316      C2317   1.406       .  A
C2316      F2332   1.356       .  S
C2317      C2318   1.406       .  A
C2318      F2321   1.358       .  S
C2319      C2322   1.410       .  A
C2319      C2326   1.409       .  A
C2322      C2323   1.407       .  A
C2322      F2327   1.357       .  S
C2323      C2324   1.406       .  A
C2323      F2329   1.357       .  S
C2324      C2325   1.407       .  A
C2325      C2326   1.403       .  A
C2325      F2328   1.358       .  S
C2326      F2330   1.358       .  S
C2333      C2334   1.412       .  A
C2333      C2338   1.409       .  A
C2333      F2351   1.358       .  S
C2334      C2335   1.406       .  A
C2334      C2339   1.501       .  S
C2335      C2336   1.403       .  A
C2335      F2340   1.358       .  S
C2336      C2337   1.412       .  A
C2336      F2352   1.358       .  S
C2337      C2338   1.409       .  A
C2338      F2341   1.357       .  S
C2339      C2342   1.412       .  A
C2339      C2346   1.408       .  A
C2342      C2343   1.408       .  A
C2342      F2347   1.357       .  S
C2343      C2344   1.406       .  A
C2343      F2349   1.356       .  S
C2344      C2345   1.407       .  A
C2345      C2346   1.403       .  A
C2345      F2348   1.358       .  S
C2346      F2350   1.357       .  S
C2353      C2354   1.412       .  A
C2353      C2358   1.408       .  A
C2353      F2371   1.357       .  S
C2354      C2355   1.408       .  A
C2354      C2359   1.498       .  S
C2355      C2356   1.400       .  A
C2355      F2360   1.358       .  S
C2356      C2357   1.406       .  A
C2356      F2372   1.358       .  S
C2357      C2358   1.405       .  A
C2358      F2361   1.357       .  S
C2359      C2362   1.410       .  A
C2359      C2366   1.409       .  A
C2362      C2363   1.406       .  A
C2362      F2367   1.357       .  S
C2363      C2364   1.405       .  A
C2363      F2369   1.357       .  S
C2364      C2365   1.407       .  A
C2365      C2366   1.403       .  A
C2365      F2368   1.359       .  S
C2366      F2370   1.358       .  S
C2373      C2374   1.412       .  A
C2373      C2378   1.408       .  A
C2373      F2391   1.358       .  S
C2374      C2375   1.405       .  A
C2374      C2379   1.496       .  S
C2375      C2376   1.399       .  A
C2375      F2380   1.358       .  S
C2376      C2377   1.413       .  A
C2376      F2392   1.358       .  S
C2377      C2378   1.408       .  A
C2378      F2381   1.356       .  S
C2379      C2382   1.407       .  A
C2379      C2386   1.412       .  A
C2382      C2383   1.400       .  A
C2382      F2387   1.358       .  S
C2383      C2384   1.406       .  A
C2383      F2389   1.358       .  S
C2384      C2385   1.404       .  A
C2385      C2386   1.406       .  A
C2385      F2388   1.357       .  S
C2386      F2390   1.358       .  S
C2393      C2394   1.412       .  A
C2393      C2398   1.409       .  A
C2393      F2411   1.358       .  S
C2394      C2395   1.408       .  A
C2394      C2399   1.503       .  S
C2395      C2396   1.404       .  A
C2395      F2400   1.358       .  S
C2396      C2397   1.410       .  A
C2396      F2412   1.358       .  S
C2397      C2398   1.409       .  A
C2398      F2401   1.358       .  S
C2399      C2402   1.414       .  A
C2399      C2406   1.409       .  A
C2402      C2403   1.409       .  A
C2402      F2407   1.357       .  S
C2403      C2404   1.406       .  A
C2403      F2409   1.357       .  S
C2404      C2405   1.406       .  A
C2405      C2406   1.402       .  A
C2405      F2408   1.358       .  S
C2406      F2410   1.357       .  S
C2413      C2414   1.398       .  A
C2413      C2418   1.386       .  A
C2413      F2431   1.359       .  S
C2414      C2415   1.404       .  A
C2414      C2419   1.465       .  S
C2415      C2416   1.402       .  A
C2415      F2420   1.357       .  S
C2416      C2417   1.408       .  A
C2416      F2432   1.358       .  S
C2417      C2418   1.410       .  A
C2418      F2421   1.358       .  S
C2419      C2422   1.398       .  A
C2419      C2426   1.404       .  A
C2422      C2423   1.390       .  A
C2422      F2427   1.359       .  S
C2423      C2424   1.412       .  A
C2423      F2429   1.357       .  S
C2424      C2425   1.407       .  A
C2425      C2426   1.400       .  A
C2425      F2428   1.357       .  S
C2426      F2430   1.358       .  S
C2433      C2434   1.406       .  A
C2433      C2438   1.398       .  A
C2433      F2451   1.358       .  S
C2434      C2435   1.399       .  A
C2434      C2439   1.466       .  S
C2435      C2436   1.394       .  A
C2435      F2440   1.358       .  S
C2436      C2437   1.406       .  A
C2436      F2452   1.358       .  S
C2437      C2438   1.400       .  A
C2438      F2441   1.357       .  S
C2439      C2442   1.398       .  A
C2439      C2446   1.402       .  A
C2442      C2443   1.388       .  A
C2442      F2447   1.359       .  S
C2443      C2444   1.412       .  A
C2443      F2449   1.359       .  S
C2444      C2445   1.411       .  A
C2445      C2446   1.403       .  A
C2445      F2448   1.357   1_556  S
C2446      F2450   1.357       .  S
C2453      C2454   1.400       .  A
C2453      C2458   1.390       .  A
C2453      F2471   1.359       .  S
C2454      C2455   1.405       .  A
C2454      C2459   1.466       .  S
C2455      C2456   1.401       .  A
C2455      F2460   1.358       .  S
C2456      C2457   1.407       .  A
C2456      F2472   1.358       .  S
C2457      C2458   1.408       .  A
C2458      F2461   1.358       .  S
C2459      C2462   1.399       .  A
C2459      C2466   1.404       .  A
C2462      C2463   1.388       .  A
C2462      F2467   1.359       .  S
C2463      C2464   1.408       .  A
C2463      F2469   1.357       .  S
C2464      C2465   1.409       .  A
C2465      C2466   1.402       .  A
C2465      F2468   1.358       .  S
C2466      F2470   1.358       .  S
C2473      C2474   1.410       .  A
C2473      C2478   1.408       .  A
C2473      F2491   1.358       .  S
C2474      C2475   1.410       .  A
C2474      C2479   1.503       .  S
C2475      C2476   1.404       .  A
C2475      F2480   1.358       .  S
C2476      C2477   1.408       .  A
C2476      F2492   1.358       .  S
C2477      C2478   1.410       .  A
C2478      F2481   1.358       .  S
C2479      C2482   1.409       .  A
C2479      C2486   1.413       .  A
C2482      C2483   1.402       .  A
C2482      F2487   1.357       .  S
C2483      C2484   1.406       .  A
C2483      F2489   1.358   1_556  S
C2484      C2485   1.408       .  A
C2485      C2486   1.408       .  A
C2485      F2488   1.356       .  S
C2486      F2490   1.357       .  S
C2493      C2494   1.411       .  A
C2493      C2498   1.404       .  A
C2493      F2511   1.357       .  S
C2494      C2495   1.409       .  A
C2494      C2499   1.498       .  S
C2495      C2496   1.402       .  A
C2495      F2500   1.358       .  S
C2496      C2497   1.408       .  A
C2496      F2512   1.358       .  S
C2497      C2498   1.407       .  A
C2498      F2501   1.357       .  S
C2499      C2502   1.410       .  A
C2499      C2506   1.409       .  A
C2502      C2503   1.404       .  A
C2502      F2507   1.357       .  S
C2503      C2504   1.407       .  A
C2503      F2509   1.357       .  S
C2504      C2505   1.410       .  A
C2505      C2506   1.403       .  A
C2505      F2508   1.358       .  S
C2506      F2510   1.358       .  S
C2513      C2514   1.408       .  A
C2513      C2518   1.401       .  A
C2513      F2531   1.358       .  S
C2514      C2515   1.412       .  A
C2514      C2519   1.503       .  S
C2515      C2516   1.408       .  A
C2515      F2520   1.357       .  S
C2516      C2517   1.411       .  A
C2516      F2532   1.358       .  S
C2517      C2518   1.413       .  A
C2518      F2521   1.358       .  S
C2519      C2522   1.411       .  A
C2519      C2526   1.410       .  A
C2522      C2523   1.404       .  A
C2522      F2527   1.358       .  S
C2523      C2524   1.408       .  A
C2523      F2529   1.355       .  S
C2524      C2525   1.409       .  A
C2525      C2526   1.405       .  A
C2525      F2528   1.358       .  S
C2526      F2530   1.358       .  S
C2533      C2534   1.415       .  A
C2533      C2538   1.411       .  A
C2533      F2551   1.357       .  S
C2534      C2535   1.409       .  A
C2534      C2539   1.508       .  S
C2535      C2536   1.402       .  A
C2535      F2540   1.358       .  S
C2536      C2537   1.408       .  A
C2536      F2552   1.357       .  S
C2537      C2538   1.408       .  A
C2538      F2541   1.357       .  S
C2539      C2542   1.411       .  A
C2539      C2546   1.413       .  A
C2542      C2543   1.408       .  A
C2542      F2547   1.357       .  S
C2543      C2544   1.410       .  A
C2543      F2549   1.358       .  S
C2544      C2545   1.408       .  A
C2545      C2546   1.407       .  A
C2545      F2548   1.358       .  S
C2546      F2550   1.358       .  S
C2553      C2554   1.406       .  A
C2553      C2558   1.400       .  A
C2553      F2571   1.358       .  S
C2554      C2555   1.411       .  A
C2554      C2559   1.495       .  S
C2555      C2556   1.407       .  A
C2555      F2560   1.358       .  S
C2556      C2557   1.407       .  A
C2556      F2572   1.357       .  S
C2557      C2558   1.407       .  A
C2558      F2561   1.357       .  S
C2559      C2562   1.411       .  A
C2559      C2566   1.404       .  A
C2562      C2563   1.407       .  A
C2562      F2567   1.358       .  S
C2563      C2564   1.409       .  A
C2563      F2569   1.357       .  S
C2564      C2565   1.414       .  A
C2565      C2566   1.399       .  A
C2565      F2568   1.357       .  S
C2566      F2570   1.358       .  S
C2573      C2574   1.412       .  A
C2573      C2578   1.407       .  A
C2573      F2591   1.357       .  S
C2574      C2575   1.412       .  A
C2574      C2579   1.506       .  S
C2575      C2576   1.405       .  A
C2575      F2580   1.358       .  S
C2576      C2577   1.408       .  A
C2576      F2592   1.358       .  S
C2577      C2578   1.408       .  A
C2578      F2581   1.358       .  S
C2579      C2582   1.414       .  A
C2579      C2586   1.411       .  A
C2582      C2583   1.408       .  A
C2582      F2587   1.357       .  S
C2583      C2584   1.407       .  A
C2583      F2589   1.356       .  S
C2584      C2585   1.406       .  A
C2585      C2586   1.403       .  A
C2585      F2588   1.358       .  S
C2586      F2590   1.358       .  S
C2593      C2594   1.403       .  A
C2593      C2598   1.385       .  A
C2593      F2611   1.359       .  S
C2594      C2595   1.402       .  A
C2594      C2599   1.466       .  S
C2595      C2596   1.398       .  A
C2595      F2600   1.358       .  S
C2596      C2597   1.408       .  A
C2596      F2612   1.358       .  S
C2597      C2598   1.400       .  A
C2598      F2601   1.355       .  S
C2599      C2602   1.404       .  A
C2599      C2606   1.401       .  A
C2602      C2603   1.387       .  A
C2602      F2607   1.359       .  S
C2603      C2604   1.400       .  A
C2603      F2609   1.355       .  S
C2604      C2605   1.408       .  A
C2605      C2606   1.397       .  A
C2605      F2608   1.358       .  S
C2606      F2610   1.358       .  S
C2613      C2614   1.403       .  A
C2613      C2618   1.402       .  A
C2613      F2631   1.358       .  S
C2614      C2615   1.403       .  A
C2614      C2619   1.470       .  S
C2615      C2616   1.388       .  A
C2615      F2620   1.359       .  S
C2616      C2617   1.400       .  A
C2616      F2632   1.352       .  S
C2617      C2618   1.408       .  A
C2618      F2621   1.358       .  S
C2619      C2622   1.403       .  A
C2619      C2626   1.403       .  A
C2622      C2623   1.401       .  A
C2622      F2627   1.358       .  S
C2623      C2624   1.409       .  A
C2623      F2629   1.358       .  S
C2624      C2625   1.402       .  A
C2625      C2626   1.388       .  A
C2625      F2628   1.355       .  S
C2626      F2630   1.359       .  S
C2633      C2634   1.403       .  A
C2633      C2638   1.386       .  A
C2633      F2651   1.358       .  S
C2634      C2635   1.404       .  A
C2634      C2639   1.470       .  S
C2635      C2636   1.400       .  A
C2635      F2640   1.357       .  S
C2636      C2637   1.407       .  A
C2636      F2652   1.358       .  S
C2637      C2638   1.405       .  A
C2638      F2641   1.358       .  S
C2639      C2642   1.401       .  A
C2639      C2646   1.408       .  A
C2642      C2643   1.389       .  A
C2642      F2647   1.359       .  S
C2643      C2644   1.406       .  A
C2643      F2649   1.358       .  S
C2644      C2645   1.402       .  A
C2645      C2646   1.401       .  A
C2645      F2648   1.357       .  S
C2646      F2650   1.358       .  S
C2653      C2654   1.409       .  A
C2653      C2658   1.405       .  A
C2653      F2671   1.357       .  S
C2654      C2655   1.404       .  A
C2654      C2659   1.490       .  S
C2655      C2656   1.401       .  A
C2655      F2660   1.358       .  S
C2656      C2657   1.410       .  A
C2656      F2672   1.358       .  S
C2657      C2658   1.407       .  A
C2658      F2661   1.357       .  S
C2659      C2662   1.403       .  A
C2659      C2666   1.409       .  A
C2662      C2663   1.399       .  A
C2662      F2667   1.358       .  S
C2663      C2664   1.412       .  A
C2663      F2669   1.358       .  S
C2664      C2665   1.409       .  A
C2665      C2666   1.407       .  A
C2665      F2668   1.358       .  S
C2666      F2670   1.358       .  S
C2673      C2674   1.413       .  A
C2673      C2678   1.405       .  A
C2673      F2691   1.358       .  S
C2674      C2675   1.408       .  A
C2674      C2679   1.499       .  S
C2675      C2676   1.400       .  A
C2675      F2680   1.358       .  S
C2676      C2677   1.407       .  A
C2676      F2692   1.358       .  S
C2677      C2678   1.406       .  A
C2678      F2681   1.356       .  S
C2679      C2682   1.406       .  A
C2679      C2686   1.412       .  A
C2682      C2683   1.398       .  A
C2682      F2687   1.358       .  S
C2683      C2684   1.414       .  A
C2683      F2689   1.358       .  S
C2684      C2685   1.408       .  A
C2685      C2686   1.407       .  A
C2685      F2688   1.357       .  S
C2686      F2690   1.357       .  S
C2693      C2694   1.406       .  A
C2693      C2698   1.398       .  A
C2693      F2711   1.358       .  S
C2694      C2695   1.410       .  A
C2694      C2699   1.490       .  S
C2695      C2696   1.405       .  A
C2695      F2700   1.358       .  S
C2696      C2697   1.407       .  A
C2696      F2712   1.357       .  S
C2697      C2698   1.406       .  A
C2698      F2701   1.358       .  S
C2699      C2702   1.408       .  A
C2699      C2706   1.407       .  A
C2702      C2703   1.401       .  A
C2702      F2707   1.358       .  S
C2703      C2704   1.406       .  A
C2703      F2709   1.358       .  S
C2704      C2705   1.407       .  A
C2705      C2706   1.403       .  A
C2705      F2708   1.358       .  S
C2706      F2710   1.358       .  S
C2713      C2714   1.408       .  A
C2713      C2718   1.397       .  A
C2713      F2731   1.358       .  S
C2714      C2715   1.413       .  A
C2714      C2719   1.498       .  S
C2715      C2716   1.408       .  A
C2715      F2720   1.357       .  S
C2716      C2717   1.406       .  A
C2716      F2732   1.357       .  S
C2717      C2718   1.404       .  A
C2718      F2721   1.358       .  S
C2719      C2722   1.410       .  A
C2719      C2726   1.410       .  A
C2722      C2723   1.407       .  A
C2722      F2727   1.358       .  S
C2723      C2724   1.408       .  A
C2723      F2729   1.358       .  S
C2724      C2725   1.405       .  A
C2725      C2726   1.401       .  A
C2725      F2728   1.358       .  S
C2726      F2730   1.358       .  S
C2733      C2734   1.410       .  A
C2733      C2738   1.404       .  A
C2733      F2751   1.357       .  S
C2734      C2735   1.404       .  A
C2734      C2739   1.489       .  S
C2735      C2736   1.397       .  A
C2735      F2740   1.358       .  S
C2736      C2737   1.413       .  A
C2736      F2752   1.358       .  S
C2737      C2738   1.406       .  A
C2738      F2741   1.357       .  S
C2739      C2742   1.411       .  A
C2739      C2746   1.406       .  A
C2742      C2743   1.403       .  A
C2742      F2747   1.358       .  S
C2743      C2744   1.405       .  A
C2743      F2749   1.356       .  S
C2744      C2745   1.404       .  A
C2745      C2746   1.397       .  A
C2745      F2748   1.358       .  S
C2746      F2750   1.358       .  S
C2753      C2754   1.407       .  A
C2753      C2758   1.398       .  A
C2753      F2771   1.358       .  S
C2754      C2755   1.413       .  A
C2754      C2759   1.493       .  S
C2755      C2756   1.404       .  A
C2755      F2760   1.357       .  S
C2756      C2757   1.402       .  A
C2756      F2772   1.357       .  S
C2757      C2758   1.405       .  A
C2758      F2761   1.358       .  S
C2759      C2762   1.411       .  A
C2759      C2766   1.405       .  A
C2762      C2763   1.407       .  A
C2762      F2767   1.358       .  S
C2763      C2764   1.407       .  A
C2763      F2769   1.357       .  S
C2764      C2765   1.412       .  A
C2765      C2766   1.397       .  A
C2765      F2768   1.357       .  S
C2766      F2770   1.358       .  S
C2773      C2774   1.413       .  A
C2773      C2778   1.408       .  A
C2773      F2791   1.357       .  S
C2774      C2775   1.407       .  A
C2774      C2779   1.499       .  S
C2775      C2776   1.403       .  A
C2775      F2780   1.358       .  S
C2776      C2777   1.407       .  A
C2776      F2792   1.358       .  S
C2777      C2778   1.404       .  A
C2778      F2781   1.357       .  S
C2779      C2782   1.412       .  A
C2779      C2786   1.406       .  A
C2782      C2783   1.409       .  A
C2782      F2787   1.358       .  S
C2783      C2784   1.408       .  A
C2783      F2789   1.357       .  S
C2784      C2785   1.410       .  A
C2785      C2786   1.402       .  A
C2785      F2788   1.358       .  S
C2786      F2790   1.358       .  S
C2793      C2794   1.409       .  A
C2793      C2798   1.403       .  A
C2793      F2811   1.357       .  S
C2794      C2795   1.401       .  A
C2794      C2799   1.473       .  S
C2795      C2796   1.388       .  A
C2795      F2800   1.359       .  S
C2796      C2797   1.407       .  A
C2796      F2812   1.359       .  S
C2797      C2798   1.402       .  A
C2798      F2801   1.357       .  S
C2799      C2802   1.403       .  A
C2799      C2806   1.402       .  A
C2802      C2803   1.391       .  A
C2802      F2807   1.359       .  S
C2803      C2804   1.410       .  A
C2803      F2809   1.359       .  S
C2804      C2805   1.409       .  A
C2805      C2806   1.400       .  A
C2805      F2808   1.357   1_554  S
C2806      F2810   1.357       .  S
C2813      C2814   1.396       .  A
C2813      C2818   1.383       .  A
C2813      F2831   1.359       .  S
C2814      C2815   1.403       .  A
C2814      C2819   1.462       .  S
C2815      C2816   1.403       .  A
C2815      F2820   1.357       .  S
C2816      C2817   1.410       .  A
C2816      F2832   1.358       .  S
C2817      C2818   1.411       .  A
C2818      F2821   1.358       .  S
C2819      C2822   1.398       .  A
C2819      C2826   1.405       .  A
C2822      C2823   1.389       .  A
C2822      F2827   1.359       .  S
C2823      C2824   1.409       .  A
C2823      F2829   1.357       .  S
C2824      C2825   1.406       .  A
C2825      C2826   1.400       .  A
C2825      F2828   1.357       .  S
C2826      F2830   1.358       .  S
C2833      C2834   1.414       .  A
C2833      C2838   1.410       .  A
C2833      F2851   1.357       .  S
C2834      C2835   1.409       .  A
C2834      C2839   1.511       .  S
C2835      C2836   1.404       .  A
C2835      F2840   1.358       .  S
C2836      C2837   1.415       .  A
C2836      F2852   1.358       .  S
C2837      C2838   1.410       .  A
C2838      F2841   1.357   1_655  S
C2839      C2842   1.411   1_655  A
C2839      C2846   1.414       .  A
C2842      C2843   1.405       .  A
C2842      F2847   1.357       .  S
C2843      C2844   1.409   1_455  A
C2843      F2849   1.358       .  S
C2844      C2845   1.409       .  A
C2845      C2846   1.408       .  A
C2845      F2848   1.355       .  S
C2846      F2850   1.357       .  S
C2853      C2854   1.410       .  A
C2853      C2858   1.403       .  A
C2853      F2871   1.358       .  S
C2854      C2855   1.406       .  A
C2854      C2859   1.493       .  S
C2855      C2856   1.400       .  A
C2855      F2860   1.358       .  S
C2856      C2857   1.410       .  A
C2856      F2872   1.358       .  S
C2857      C2858   1.406       .  A
C2858      F2861   1.358       .  S
C2859      C2862   1.405       .  A
C2859      C2866   1.411       .  A
C2862      C2863   1.398       .  A
C2862      F2867   1.358       .  S
C2863      C2864   1.408       .  A
C2863      F2869   1.358       .  S
C2864      C2865   1.408       .  A
C2865      C2866   1.405       .  A
C2865      F2868   1.357       .  S
C2866      F2870   1.358       .  S
C2873      C2874   1.414       .  A
C2873      C2878   1.409       .  A
C2873      F2891   1.358       .  S
C2874      C2875   1.409       .  A
C2874      C2879   1.504       .  S
C2875      C2876   1.401       .  A
C2875      F2880   1.358       .  S
C2876      C2877   1.411       .  A
C2876      F2892   1.358       .  S
C2877      C2878   1.407       .  A
C2878      F2881   1.357       .  S
C2879      C2882   1.416       .  A
C2879      C2886   1.410       .  A
C2882      C2883   1.407       .  A
C2882      F2887   1.358       .  S
C2883      C2884   1.405       .  A
C2883      F2889   1.357       .  S
C2884      C2885   1.403       .  A
C2885      C2886   1.400       .  A
C2885      F2888   1.358       .  S
C2886      F2890   1.357       .  S
C2893      C2894   1.404       .  A
C2893      C2898   1.401       .  A
C2893      F2911   1.358   1_554  S
C2894      C2895   1.406       .  A
C2894      C2899   1.476       .  S
C2895      C2896   1.388       .  A
C2895      F2900   1.359       .  S
C2896      C2897   1.400       .  A
C2896      F2912   1.355       .  S
C2897      C2898   1.408       .  A
C2898      F2901   1.358   1_554  S
C2899      C2902   1.406       .  A
C2899      C2906   1.404       .  A
C2902      C2903   1.402       .  A
C2902      F2907   1.357       .  S
C2903      C2904   1.407       .  A
C2903      F2909   1.358       .  S
C2904      C2905   1.403       .  A
C2905      C2906   1.387       .  A
C2905      F2908   1.355       .  S
C2906      F2910   1.359       .  S
C2913      C2914   1.401       .  A
C2913      C2918   1.396       .  A
C2913      F2931   1.358       .  S
C2914      C2915   1.406       .  A
C2914      C2919   1.472       .  S
C2915      C2916   1.401       .  A
C2915      F2920   1.358       .  S
C2916      C2917   1.402       .  A
C2916      F2932   1.356       .  S
C2917      C2918   1.404       .  A
C2918      F2921   1.356   1_556  S
C2919      C2922   1.403       .  A
C2919      C2926   1.400       .  A
C2922      C2923   1.402       .  A
C2922      F2927   1.357       .  S
C2923      C2924   1.411       .  A
C2923      F2929   1.358       .  S
C2924      C2925   1.411       .  A
C2925      C2926   1.391       .  A
C2925      F2928   1.358       .  S
C2926      F2930   1.359       .  S
C2933      C2934   1.404       .  A
C2933      C2938   1.390       .  A
C2933      F2951   1.358       .  S
C2934      C2935   1.406       .  A
C2934      C2939   1.481       .  S
C2935      C2936   1.405       .  A
C2935      F2940   1.357       .  S
C2936      C2937   1.410       .  A
C2936      F2952   1.358   1_565  S
C2937      C2938   1.404       .  A
C2938      F2941   1.356       .  S
C2939      C2942   1.405       .  A
C2939      C2946   1.406       .  A
C2942      C2943   1.404       .  A
C2942      F2947   1.358       .  S
C2943      C2944   1.409       .  A
C2943      F2949   1.358       .  S
C2944      C2945   1.401       .  A
C2945      C2946   1.392       .  A
C2945      F2948   1.354       .  S
C2946      F2950   1.359       .  S
C2953      C2954   1.407       .  A
C2953      C2958   1.404       .  A
C2953      F2971   1.357       .  S
C2954      C2955   1.400       .  A
C2954      C2959   1.470       .  S
C2955      C2956   1.389       .  A
C2955      F2960   1.359       .  S
C2956      C2957   1.406       .  A
C2956      F2972   1.358       .  S
C2957      C2958   1.404       .  A
C2958      F2961   1.357       .  S
C2959      C2962   1.402       .  A
C2959      C2966   1.401       .  A
C2962      C2963   1.403       .  A
C2962      F2967   1.358       .  S
C2963      C2964   1.413       .  A
C2963      F2969   1.358       .  S
C2964      C2965   1.409       .  A
C2965      C2966   1.388       .  A
C2965      F2968   1.358       .  S
C2966      F2970   1.359       .  S
C2973      C2974   1.412       .  A
C2973      C2978   1.399       .  A
C2973      F2991   1.358       .  S
C2974      C2975   1.411       .  A
C2974      C2979   1.498       .  S
C2975      C2976   1.404       .  A
C2975      F2980   1.358       .  S
C2976      C2977   1.407       .  A
C2976      F2992   1.358       .  S
C2977      C2978   1.402       .  A
C2978      F2981   1.358       .  S
C2979      C2982   1.414       .  A
C2979      C2986   1.409       .  A
C2982      C2983   1.405       .  A
C2982      F2987   1.357       .  S
C2983      C2984   1.404       .  A
C2983      F2989   1.356       .  S
C2984      C2985   1.403       .  A
C2985      C2986   1.396       .  A
C2985      F2988   1.358       .  S
C2986      F2990   1.358       .  S
C2993      C2994   1.409       .  A
C2993      C2998   1.401       .  A
C2993      F3011   1.358       .  S
C2994      C2995   1.413       .  A
C2994      C2999   1.498       .  S
C2995      C2996   1.406       .  A
C2995      F3000   1.357       .  S
C2996      C2997   1.403       .  A
C2996      F3012   1.357       .  S
C2997      C2998   1.405       .  A
C2998      F3001   1.358       .  S
C2999      C3002   1.411       .  A
C2999      C3006   1.408       .  A
C3002      C3003   1.406       .  A
C3002      F3007   1.358       .  S
C3003      C3004   1.407       .  A
C3003      F3009   1.358       .  S
C3004      C3005   1.409       .  A
C3005      C3006   1.402       .  A
C3005      F3008   1.358       .  S
C3006      F3010   1.358       .  S
C3013      C3014   1.407       .  A
C3013      C3018   1.398   1_554  A
C3013      F3031   1.358   1_554  S
C3014      C3015   1.412       .  A
C3014      C3019   1.493       .  S
C3015      C3016   1.403       .  A
C3015      F3020   1.357       .  S
C3016      C3017   1.403       .  A
C3016      F3032   1.357       .  S
C3017      C3018   1.406   1_554  A
C3018      F3021   1.354       .  S
C3019      C3022   1.407       .  A
C3019      C3026   1.414       .  A
C3022      C3023   1.396       .  A
C3022      F3027   1.358   1_554  S
C3023      C3024   1.405       .  A
C3023      F3029   1.358   1_564  S
C3024      C3025   1.403       .  A
C3025      C3026   1.405       .  A
C3025      F3028   1.357       .  S
C3026      F3030   1.358       .  S
C3033      C3034   1.405       .  A
C3033      C3038   1.399       .  A
C3033      F3051   1.358       .  S
C3034      C3035   1.400       .  A
C3034      C3039   1.467       .  S
C3035      C3036   1.389       .  A
C3035      F3040   1.359       .  S
C3036      C3037   1.408       .  A
C3036      F3052   1.359       .  S
C3037      C3038   1.405       .  A
C3038      F3041   1.357       .  S
C3039      C3042   1.402       .  A
C3039      C3046   1.404       .  A
C3042      C3043   1.390       .  A
C3042      F3047   1.359       .  S
C3043      C3044   1.407       .  A
C3043      F3049   1.359       .  S
C3044      C3045   1.406       .  A
C3045      C3046   1.398       .  A
C3045      F3048   1.358       .  S
C3046      F3050   1.358       .  S
C3053      C3054   1.406       .  A
C3053      C3058   1.402       .  A
C3053      F3071   1.357       .  S
C3054      C3055   1.399       .  A
C3054      C3059   1.471       .  S
C3055      C3056   1.389       .  A
C3055      F3060   1.359       .  S
C3056      C3057   1.411       .  A
C3056      F3072   1.359       .  S
C3057      C3058   1.406       .  A
C3058      F3061   1.357       .  S
C3059      C3062   1.401       .  A
C3059      C3066   1.407       .  A
C3062      C3063   1.391       .  A
C3062      F3067   1.358       .  S
C3063      C3064   1.407       .  A
C3063      F3069   1.359       .  S
C3064      C3065   1.403       .  A
C3065      C3066   1.400       .  A
C3065      F3068   1.356       .  S
C3066      F3070   1.358       .  S
C3073      C3074   1.397       .  A
C3073      C3078   1.385       .  A
C3073      F3091   1.359       .  S
C3074      C3075   1.405       .  A
C3074      C3079   1.462       .  S
C3075      C3076   1.401       .  A
C3075      F3080   1.357       .  S
C3076      C3077   1.406       .  A
C3076      F3092   1.357       .  S
C3077      C3078   1.410       .  A
C3078      F3081   1.357       .  S
C3079      C3082   1.398       .  A
C3079      C3086   1.404       .  A
C3082      C3083   1.387       .  A
C3082      F3087   1.359       .  S
C3083      C3084   1.411       .  A
C3083      F3089   1.358       .  S
C3084      C3085   1.406       .  A
C3085      C3086   1.400       .  A
C3085      F3088   1.357       .  S
C3086      F3090   1.357       .  S
C3093      C3094   1.405       .  A
C3093      C3098   1.401       .  A
C3093      F3111   1.357       .  S
C3094      C3095   1.398       .  A
C3094      C3099   1.465       .  S
C3095      C3096   1.390       .  A
C3095      F3100   1.359       .  S
C3096      C3097   1.408       .  A
C3096      F3112   1.357       .  S
C3097      C3098   1.404       .  A
C3098      F3101   1.357       .  S
C3099      C3102   1.403       .  A
C3099      C3106   1.397       .  A
C3102      C3103   1.402       .  A
C3102      F3107   1.357       .  S
C3103      C3104   1.410       .  A
C3103      F3109   1.357       .  S
C3104      C3105   1.414       .  A
C3105      C3106   1.387       .  A
C3105      F3108   1.359       .  S
C3106      F3110   1.359       .  S
C3113      C3114   1.413       .  A
C3113      C3118   1.409       .  A
C3113      F3131   1.357       .  S
C3114      C3115   1.407       .  A
C3114      C3119   1.505       .  S
C3115      C3116   1.402       .  A
C3115      F3120   1.358       .  S
C3116      C3117   1.416       .  A
C3116      F3132   1.358       .  S
C3117      C3118   1.409       .  A
C3118      F3121   1.357       .  S
C3119      C3122   1.409       .  A
C3119      C3126   1.414       .  A
C3122      C3123   1.402       .  A
C3122      F3127   1.358       .  S
C3123      C3124   1.408       .  A
C3123      F3129   1.358       .  S
C3124      C3125   1.407       .  A
C3125      C3126   1.408       .  A
C3125      F3128   1.357       .  S
C3126      F3130   1.357       .  S
C3133      C3134   1.407       .  A
C3133      C3138   1.402       .  A
C3133      F3151   1.358   1_455  S
C3134      C3135   1.411       .  A
C3134      C3139   1.499       .  S
C3135      C3136   1.408       .  A
C3135      F3140   1.357       .  S
C3136      C3137   1.407       .  A
C3136      F3152   1.357       .  S
C3137      C3138   1.407       .  A
C3138      F3141   1.358   1_455  S
C3139      C3142   1.409   1_455  A
C3139      C3146   1.410       .  A
C3142      C3143   1.403       .  A
C3142      F3147   1.358       .  S
C3143      C3144   1.408   1_655  A
C3143      F3149   1.358       .  S
C3144      C3145   1.407       .  A
C3145      C3146   1.408       .  A
C3145      F3148   1.358       .  S
C3146      F3150   1.357       .  S
C3153      C3154   1.403       .  A
C3153      C3158   1.397       .  A
C3153      F3171   1.358       .  S
C3154      C3155   1.411       .  A
C3154      C3159   1.494       .  S
C3155      C3156   1.408       .  A
C3155      F3160   1.358       .  S
C3156      C3157   1.409       .  A
C3156      F3172   1.357       .  S
C3157      C3158   1.415       .  A
C3158      F3161   1.358       .  S
C3159      C3162   1.411       .  A
C3159      C3166   1.407       .  A
C3162      C3163   1.403       .  A
C3162      F3167   1.357       .  S
C3163      C3164   1.404       .  A
C3163      F3169   1.357       .  S
C3164      C3165   1.408       .  A
C3165      C3166   1.401       .  A
C3165      F3168   1.358       .  S
C3166      F3170   1.358       .  S
C3173      C3174   1.403       .  A
C3173      C3178   1.398       .  A
C3173      F3191   1.358       .  S
C3174      C3175   1.410       .  A
C3174      C3179   1.492       .  S
C3175      C3176   1.404       .  A
C3175      F3180   1.358       .  S
C3176      C3177   1.408       .  A
C3176      F3192   1.357       .  S
C3177      C3178   1.416       .  A
C3178      F3181   1.358       .  S
C3179      C3182   1.411       .  A
C3179      C3186   1.407       .  A
C3182      C3183   1.404       .  A
C3182      F3187   1.358       .  S
C3183      C3184   1.409       .  A
C3183      F3189   1.357       .  S
C3184      C3185   1.406       .  A
C3185      C3186   1.396       .  A
C3185      F3188   1.357       .  S
C3186      F3190   1.358       .  S
C3193      C3194   1.413       .  A
C3193      C3198   1.404       .  A
C3193      F3211   1.357       .  S
C3194      C3195   1.408       .  A
C3194      C3199   1.501       .  S
C3195      C3196   1.403       .  A
C3195      F3200   1.358       .  S
C3196      C3197   1.410       .  A
C3196      F3212   1.358   1_545  S
C3197      C3198   1.406       .  A
C3198      F3201   1.357       .  S
C3199      C3202   1.407       .  A
C3199      C3206   1.413       .  A
C3202      C3203   1.401       .  A
C3202      F3207   1.358       .  S
C3203      C3204   1.409       .  A
C3203      F3209   1.358       .  S
C3204      C3205   1.410       .  A
C3205      C3206   1.409       .  A
C3205      F3208   1.358       .  S
C3206      F3210   1.358       .  S
C3213      C3214   1.411       .  A
C3213      C3218   1.406       .  A
C3213      F3231   1.357       .  S
C3214      C3215   1.407   1_565  A
C3214      C3219   1.498       .  S
C3215      C3216   1.402       .  A
C3215      F3220   1.358       .  S
C3216      C3217   1.409   1_545  A
C3216      F3232   1.358       .  S
C3217      C3218   1.407       .  A
C3218      F3221   1.357       .  S
C3219      C3222   1.404       .  A
C3219      C3226   1.411       .  A
C3222      C3223   1.400       .  A
C3222      F3227   1.358       .  S
C3223      C3224   1.415       .  A
C3223      F3229   1.358       .  S
C3224      C3225   1.411       .  A
C3225      C3226   1.410       .  A
C3225      F3228   1.357       .  S
C3226      F3230   1.358       .  S
C3233      C3234   1.404       .  A
C3233      C3238   1.400       .  A
C3233      F3251   1.358       .  S
C3234      C3235   1.409       .  A
C3234      C3239   1.493       .  S
C3235      C3236   1.408       .  A
C3235      F3240   1.358       .  S
C3236      C3237   1.410       .  A
C3236      F3252   1.358       .  S
C3237      C3238   1.412       .  A
C3238      F3241   1.358       .  S
C3239      C3242   1.409       .  A
C3239      C3246   1.406   1_455  A
C3242      C3243   1.405       .  A
C3242      F3247   1.357       .  S
C3243      C3244   1.409       .  A
C3243      F3249   1.357       .  S
C3244      C3245   1.409   1_455  A
C3245      C3246   1.402       .  A
C3245      F3248   1.358       .  S
C3246      F3250   1.358       .  S
C3253      C3254   1.409       .  A
C3253      C3258   1.406       .  A
C3253      F3271   1.357       .  S
C3254      C3255   1.409   1_655  A
C3254      C3259   1.496       .  S
C3255      C3256   1.401       .  A
C3255      F3260   1.358       .  S
C3256      C3257   1.407   1_455  A
C3256      F3272   1.358       .  S
C3257      C3258   1.408       .  A
C3258      F3261   1.358       .  S
C3259      C3262   1.410       .  A
C3259      C3266   1.407       .  A
C3262      C3263   1.407       .  A
C3262      F3267   1.357       .  S
C3263      C3264   1.408       .  A
C3263      F3269   1.357       .  S
C3264      C3265   1.409       .  A
C3265      C3266   1.400       .  A
C3265      F3268   1.358       .  S
C3266      F3270   1.358       .  S
C3273      C3274   1.402       .  A
C3273      C3278   1.399       .  A
C3273      F3291   1.358       .  S
C3274      C3275   1.405       .  A
C3274      C3279   1.473       .  S
C3275      C3276   1.397       .  A
C3275      F3280   1.358       .  S
C3276      C3277   1.400       .  A
C3276      F3292   1.353       .  S
C3277      C3278   1.406       .  A
C3278      F3281   1.358       .  S
C3279      C3282   1.402       .  A
C3279      C3286   1.402       .  A
C3282      C3283   1.394       .  A
C3282      F3287   1.358       .  S
C3283      C3284   1.407       .  A
C3283      F3289   1.358       .  S
C3284      C3285   1.412       .  A
C3285      C3286   1.403       .  A
C3285      F3288   1.358   1_655  S
C3286      F3290   1.358       .  S
C3293      C3294   1.405       .  A
C3293      C3298   1.389       .  A
C3293      F3311   1.359       .  S
C3294      C3295   1.403       .  A
C3294      C3299   1.473       .  S
C3295      C3296   1.400       .  A
C3295      F3300   1.358       .  S
C3296      C3297   1.408       .  A
C3296      F3312   1.358   1_545  S
C3297      C3298   1.403       .  A
C3298      F3301   1.356       .  S
C3299      C3302   1.404       .  A
C3299      C3306   1.403       .  A
C3302      C3303   1.389       .  A
C3302      F3307   1.359       .  S
C3303      C3304   1.403       .  A
C3303      F3309   1.354       .  S
C3304      C3305   1.407       .  A
C3305      C3306   1.400       .  A
C3305      F3308   1.358       .  S
C3306      F3310   1.357       .  S
C3313      C3314   1.402       .  A
C3313      C3318   1.387       .  A
C3313      F3331   1.359       .  S
C3314      C3315   1.403       .  A
C3314      C3319   1.469       .  S
C3315      C3316   1.401       .  A
C3315      F3320   1.358       .  S
C3316      C3317   1.410       .  A
C3316      F3332   1.358   1_565  S
C3317      C3318   1.406       .  A
C3318      F3321   1.358       .  S
C3319      C3322   1.407       .  A
C3319      C3326   1.401       .  A
C3322      C3323   1.401       .  A
C3322      F3327   1.358       .  S
C3323      C3324   1.403       .  A
C3323      F3329   1.356       .  S
C3324      C3325   1.403       .  A
C3325      C3326   1.388       .  A
C3325      F3328   1.358       .  S
C3326      F3330   1.358       .  S
C3333      C3334   1.402       .  A
C3333      C3338   1.393       .  A
C3333      F3351   1.358       .  S
C3334      C3335   1.400       .  A
C3334      C3339   1.469       .  S
C3335      C3336   1.399       .  A
C3335      F3340   1.357       .  S
C3336      C3337   1.410       .  A
C3336      F3352   1.358       .  S
C3337      C3338   1.408       .  A
C3338      F3341   1.358       .  S
C3339      C3342   1.402       .  A
C3339      C3346   1.403       .  A
C3342      C3343   1.399       .  A
C3342      F3347   1.357   1_655  S
C3343      C3344   1.405       .  A
C3343      F3349   1.357   1_655  S
C3344      C3345   1.400       .  A
C3345      C3346   1.394       .  A
C3345      F3348   1.350       .  S
C3346      F3350   1.358       .  S
C3353      C3354   1.405       .  A
C3353      C3358   1.402       .  A
C3353      F3371   1.358       .  S
C3354      C3355   1.413       .  A
C3354      C3359   1.504       .  S
C3355      C3356   1.413       .  A
C3355      F3360   1.358       .  S
C3356      C3357   1.412       .  A
C3356      F3372   1.358       .  S
C3357      C3358   1.415       .  A
C3358      F3361   1.358       .  S
C3359      C3362   1.412       .  A
C3359      C3366   1.408       .  A
C3362      C3363   1.409       .  A
C3362      F3367   1.357       .  S
C3363      C3364   1.408       .  A
C3363      F3369   1.357       .  S
C3364      C3365   1.411       .  A
C3365      C3366   1.406       .  A
C3365      F3368   1.358       .  S
C3366      F3370   1.358       .  S
C3373      C3374   1.408       .  A
C3373      C3378   1.406       .  A
C3373      F3391   1.357       .  S
C3374      C3375   1.404       .  A
C3374      C3379   1.490       .  S
C3375      C3376   1.401       .  A
C3375      F3380   1.358       .  S
C3376      C3377   1.411       .  A
C3376      F3392   1.357       .  S
C3377      C3378   1.408       .  A
C3378      F3381   1.358       .  S
C3379      C3382   1.405       .  A
C3379      C3386   1.410       .  A
C3382      C3383   1.400       .  A
C3382      F3387   1.358       .  S
C3383      C3384   1.407       .  A
C3383      F3389   1.358       .  S
C3384      C3385   1.406       .  A
C3385      C3386   1.406       .  A
C3385      F3388   1.357       .  S
C3386      F3390   1.357       .  S
C3393      C3394   1.406       .  A
C3393      C3398   1.398       .  A
C3393      F3411   1.358       .  S
C3394      C3395   1.413       .  A
C3394      C3399   1.500       .  S
C3395      C3396   1.407       .  A
C3395      F3400   1.358       .  S
C3396      C3397   1.410       .  A
C3396      F3412   1.357       .  S
C3397      C3398   1.408       .  A
C3398      F3401   1.356   1_655  S
C3399      C3402   1.413   1_545  A
C3399      C3406   1.406       .  A
C3402      C3403   1.405       .  A
C3402      F3407   1.358       .  S
C3403      C3404   1.406   1_565  A
C3403      F3409   1.357       .  S
C3404      C3405   1.414       .  A
C3405      C3406   1.402       .  A
C3405      F3408   1.358       .  S
C3406      F3410   1.358       .  S
C3413      C3414   1.402       .  A
C3413      C3418   1.400       .  A
C3413      F3431   1.358       .  S
C3414      C3415   1.396       .  A
C3414      C3419   1.462       .  S
C3415      C3416   1.386       .  A
C3415      F3420   1.359       .  S
C3416      C3417   1.413       .  A
C3416      F3432   1.358       .  S
C3417      C3418   1.410       .  A
C3418      F3421   1.358       .  S
C3419      C3422   1.404       .  A
C3419      C3426   1.400       .  A
C3422      C3423   1.399       .  A
C3422      F3427   1.357       .  S
C3423      C3424   1.404       .  A
C3423      F3429   1.358       .  S
C3424      C3425   1.405       .  A
C3425      C3426   1.388       .  A
C3425      F3428   1.358       .  S
C3426      F3430   1.359       .  S
C3433      C3434   1.406       .  A
C3433      C3438   1.401       .  A
C3433      F3451   1.358       .  S
C3434      C3435   1.399       .  A
C3434      C3439   1.467       .  S
C3435      C3436   1.391       .  A
C3435      F3440   1.359       .  S
C3436      C3437   1.407       .  A
C3436      F3452   1.358       .  S
C3437      C3438   1.403       .  A
C3438      F3441   1.357       .  S
C3439      C3442   1.396       .  A
C3439      C3446   1.404       .  A
C3442      C3443   1.385       .  A
C3442      F3447   1.359       .  S
C3443      C3444   1.414       .  A
C3443      F3449   1.359       .  S
C3444      C3445   1.410       .  A
C3445      C3446   1.404       .  A
C3445      F3448   1.357       .  S
C3446      F3450   1.357       .  S
C3453      C3454   1.406       .  A
C3453      C3458   1.390       .  A
C3453      F3471   1.359       .  S
C3454      C3455   1.405       .  A
C3454      C3459   1.477       .  S
C3455      C3456   1.401       .  A
C3455      F3460   1.357   1_655  S
C3456      C3457   1.408       .  A
C3456      F3472   1.358   1_655  S
C3457      C3458   1.402       .  A
C3458      F3461   1.356       .  S
C3459      C3462   1.405       .  A
C3459      C3466   1.404       .  A
C3462      C3463   1.391       .  A
C3462      F3467   1.359       .  S
C3463      C3464   1.403       .  A
C3463      F3469   1.355       .  S
C3464      C3465   1.408       .  A
C3465      C3466   1.401       .  A
C3465      F3468   1.358       .  S
C3466      F3470   1.357       .  S
C3473      C3474   1.401       .  A
C3473      C3478   1.392       .  A
C3473      F3491   1.359       .  S
C3474      C3475   1.401       .  A
C3474      C3479   1.468       .  S
C3475      C3476   1.400       .  A
C3475      F3480   1.358       .  S
C3476      C3477   1.412       .  A
C3476      F3492   1.358   1_556  S
C3477      C3478   1.408       .  A
C3478      F3481   1.358       .  S
C3479      C3482   1.401       .  A
C3479      C3486   1.405       .  A
C3482      C3483   1.396       .  A
C3482      F3487   1.358       .  S
C3483      C3484   1.403       .  A
C3483      F3489   1.357       .  S
C3484      C3485   1.400       .  A
C3485      C3486   1.396       .  A
C3485      F3488   1.353       .  S
C3486      F3490   1.358       .  S
C3493      C3494   1.410       .  A
C3493      C3498   1.405       .  A
C3493      F3511   1.357       .  S
C3494      C3495   1.414       .  A
C3494      C3499   1.507       .  S
C3495      C3496   1.407       .  A
C3495      F3500   1.357       .  S
C3496      C3497   1.406       .  A
C3496      F3512   1.356       .  S
C3497      C3498   1.408       .  A
C3498      F3501   1.358       .  S
C3499      C3502   1.414       .  A
C3499      C3506   1.406       .  A
C3502      C3503   1.413       .  A
C3502      F3507   1.357       .  S
C3503      C3504   1.410       .  A
C3503      F3509   1.357       .  S
C3504      C3505   1.417       .  A
C3505      C3506   1.401       .  A
C3505      F3508   1.358       .  S
C3506      F3510   1.358       .  S
C3513      C3514   1.413       .  A
C3513      C3518   1.410       .  A
C3513      F3531   1.357       .  S
C3514      C3515   1.411   1_455  A
C3514      C3519   1.508       .  S
C3515      C3516   1.406       .  A
C3515      F3520   1.358       .  S
C3516      C3517   1.409   1_655  A
C3516      F3532   1.358       .  S
C3517      C3518   1.408       .  A
C3518      F3521   1.357       .  S
C3519      C3522   1.413       .  A
C3519      C3526   1.411       .  A
C3522      C3523   1.409       .  A
C3522      F3527   1.357       .  S
C3523      C3524   1.409       .  A
C3523      F3529   1.357       .  S
C3524      C3525   1.408       .  A
C3525      C3526   1.405       .  A
C3525      F3528   1.358   1_556  S
C3526      F3530   1.358       .  S
C3533      C3534   1.408       .  A
C3533      C3538   1.404       .  A
C3533      F3551   1.358       .  S
C3534      C3535   1.412       .  A
C3534      C3539   1.500       .  S
C3535      C3536   1.407       .  A
C3535      F3540   1.357       .  S
C3536      C3537   1.406       .  A
C3536      F3552   1.357       .  S
C3537      C3538   1.409       .  A
C3538      F3541   1.357       .  S
C3539      C3542   1.413       .  A
C3539      C3546   1.409       .  A
C3542      C3543   1.407       .  A
C3542      F3547   1.357       .  S
C3543      C3544   1.403       .  A
C3543      F3549   1.357       .  S
C3544      C3545   1.406       .  A
C3545      C3546   1.402       .  A
C3545      F3548   1.358       .  S
C3546      F3550   1.358       .  S
C3553      C3554   1.406       .  A
C3553      C3558   1.401       .  A
C3553      F3571   1.358       .  S
C3554      C3555   1.412       .  A
C3554      C3559   1.502       .  S
C3555      C3556   1.409       .  A
C3555      F3560   1.357       .  S
C3556      C3557   1.409       .  A
C3556      F3572   1.357       .  S
C3557      C3558   1.415       .  A
C3558      F3561   1.358       .  S
C3559      C3562   1.413       .  A
C3559      C3566   1.408   1_554  A
C3562      C3563   1.408       .  A
C3562      F3567   1.358       .  S
C3563      C3564   1.407       .  A
C3563      F3569   1.356       .  S
C3564      C3565   1.408   1_554  A
C3565      C3566   1.402       .  A
C3565      F3568   1.358       .  S
C3566      F3570   1.358       .  S
C3573      C3574   1.407   1_565  A
C3573      C3578   1.399       .  A
C3573      F3591   1.358       .  S
C3574      C3575   1.411       .  A
C3574      C3579   1.493       .  S
C3575      C3576   1.406       .  A
C3575      F3580   1.357       .  S
C3576      C3577   1.405       .  A
C3576      F3592   1.357       .  S
C3577      C3578   1.405   1_545  A
C3578      F3581   1.358   1_455  S
C3579      C3582   1.409       .  A
C3579      C3586   1.409   1_545  A
C3582      C3583   1.405       .  A
C3582      F3587   1.357       .  S
C3583      C3584   1.404       .  A
C3583      F3589   1.355       .  S
C3584      C3585   1.405   1_545  A
C3585      C3586   1.401       .  A
C3585      F3588   1.358       .  S
C3586      F3590   1.358       .  S
C3593      C3594   1.412       .  A
C3593      C3598   1.411       .  A
C3593      F3611   1.358       .  S
C3594      C3595   1.407       .  A
C3594      C3599   1.505       .  S
C3595      C3596   1.403       .  A
C3595      F3600   1.358       .  S
C3596      C3597   1.412       .  A
C3596      F3612   1.355       .  S
C3597      C3598   1.411       .  A
C3598      F3601   1.357       .  S
C3599      C3602   1.409   1_455  A
C3599      C3606   1.414       .  A
C3602      C3603   1.404       .  A
C3602      F3607   1.358       .  S
C3603      C3604   1.408   1_655  A
C3603      F3609   1.358       .  S
C3604      C3605   1.405       .  A
C3605      C3606   1.408       .  A
C3605      F3608   1.357       .  S
C3606      F3610   1.357       .  S
C3613      C3614   1.414       .  A
C3613      C3618   1.414       .  A
C3613      F3631   1.358       .  S
C3614      C3615   1.407       .  A
C3614      C3619   1.505       .  S
C3615      C3616   1.403       .  A
C3615      F3620   1.358   1_556  S
C3616      C3617   1.409       .  A
C3616      F3632   1.357   1_556  S
C3617      C3618   1.409       .  A
C3618      F3621   1.357       .  S
C3619      C3622   1.414       .  A
C3619      C3626   1.408       .  A
C3622      C3623   1.410       .  A
C3622      F3627   1.357       .  S
C3623      C3624   1.406       .  A
C3623      F3629   1.357       .  S
C3624      C3625   1.409       .  A
C3625      C3626   1.405       .  A
C3625      F3628   1.357   1_566  S
C3626      F3630   1.358       .  S
C3633      C3634   1.415       .  A
C3633      C3638   1.409       .  A
C3633      F3651   1.357       .  S
C3634      C3635   1.411       .  A
C3634      C3639   1.507       .  S
C3635      C3636   1.403       .  A
C3635      F3640   1.358   1_565  S
C3636      C3637   1.409       .  A
C3636      F3652   1.358   1_565  S
C3637      C3638   1.405       .  A
C3638      F3641   1.357       .  S
C3639      C3642   1.416       .  A
C3639      C3646   1.411       .  A
C3642      C3643   1.408       .  A
C3642      F3647   1.357       .  S
C3643      C3644   1.405       .  A
C3643      F3649   1.357       .  S
C3644      C3645   1.406       .  A
C3645      C3646   1.403       .  A
C3645      F3648   1.358   1_665  S
C3646      F3650   1.357   1_565  S
C3653      C3654   1.410   1_455  A
C3653      C3658   1.405       .  A
C3653      F3671   1.358       .  S
C3654      C3655   1.408       .  A
C3654      C3659   1.496       .  S
C3655      C3656   1.402       .  A
C3655      F3660   1.358       .  S
C3656      C3657   1.407       .  A
C3656      F3672   1.358       .  S
C3657      C3658   1.407   1_655  A
C3658      F3661   1.358       .  S
C3659      C3662   1.407       .  A
C3659      C3666   1.410       .  A
C3662      C3663   1.403   1_655  A
C3662      F3667   1.358   1_655  S
C3663      C3664   1.408   1_455  A
C3663      F3669   1.358   1_556  S
C3664      C3665   1.407       .  A
C3665      C3666   1.405       .  A
C3665      F3668   1.356       .  S
C3666      F3670   1.358       .  S
