geometry optimzed in LAMMPS
_audit_creation_date              2020-11-30 
_audit_creation_method            'lammps2cif' 
_symmetry_space_group_name_H-M    'P1' 
_symmetry_Int_Tables_number       1 
_symmetry_cell_setting            triclinic 
loop_ 
_symmetry_equiv_pos_as_xyz 
  x,y,z 
_cell_length_a                    79.49305969 
_cell_length_b                    79.13288853508 
_cell_length_c                    79.22335971808867 
_cell_angle_alpha                 90.02433978518285 
_cell_angle_beta                  89.82461493243146 
_cell_angle_gamma                 90.2669948455377 
loop_ 
_atom_site_label 
_atom_site_type_symbol 
_atom_site_fract_x 
_atom_site_fract_y 
_atom_site_fract_z 
_atom_site_charge 
O1          O  0.76250607  0.37359994  0.36265391    -0.57500
C2          C  0.78840769  0.36973530  0.41162999     0.75100
O3          O  0.73709061  0.34912132  0.40465274    -0.58600
C4          C  0.75103494  0.36480857  0.35566406     0.75100
C5          C  0.78328403  0.32563173  0.38051949     0.77500
Cd6        Cd  0.76404445  0.35554356  0.38838115     1.37500
O7          O  0.78523765  0.37756618  0.39799478    -0.57500
O8          O  0.78562439  0.33980603  0.37344311    -0.56300
C9          C  0.73395536  0.36478750  0.40648252     0.77500
O10         O  0.77112724  0.32474169  0.39098658    -0.58700
O11         O  0.78035771  0.35610161  0.41401429    -0.57100
O12         O  0.74641485  0.35157189  0.36344563    -0.57100
O13         O  0.74466464  0.37495897  0.40039043    -0.56300
O14         O  0.64926126  0.38730128  0.47694072    -0.57500
C15         C  0.61502081  0.40695910  0.51518830     0.75100
O16         O  0.66492183  0.42605375  0.51446217    -0.58600
C17         C  0.65990499  0.39448710  0.46728158     0.75100
C18         C  0.63211340  0.44083729  0.47191276     0.77500
Cd19       Cd  0.64380576  0.41387216  0.49362447     1.37500
O20         O  0.61900829  0.39654305  0.50365406    -0.57500
O21         O  0.62459056  0.42678357  0.47358889    -0.56300
C22         C  0.67135566  0.41168901  0.51740265     0.77500
O23         O  0.64504660  0.44307322  0.48105887    -0.58700
O24         O  0.62402111  0.42015968  0.51619738    -0.57100
O25         O  0.66202182  0.41018714  0.46946732    -0.57100
O26         O  0.66489393  0.39922474  0.50982546    -0.56300
O27         O  0.75809974  0.37207133  0.63697885    -0.57500
C28         C  0.73065184  0.37922168  0.59020538     0.75100
O29         O  0.77403482  0.34679467  0.58990565    -0.58600
C30         C  0.76766174  0.36055474  0.64259538     0.75100
C31         C  0.72858028  0.32874806  0.61579211     0.77500
Cd32       Cd  0.75156244  0.35687745  0.61003644     1.37500
O33         O  0.73276069  0.38217599  0.60582785    -0.57500
O34         O  0.72740588  0.34279550  0.62334388    -0.56300
C35         C  0.78156503  0.36101228  0.58965458     0.77500
O36         O  0.74064735  0.32740447  0.60533200    -0.58700
O37         O  0.73782794  0.36620588  0.58443620    -0.57100
O38         O  0.76915605  0.34752241  0.63343402    -0.57100
O39         O  0.77545360  0.37240612  0.59901329    -0.56300
O40         O  0.90031603  0.39534996  0.50111484    -0.57500
C41         C  0.85380760  0.40075740  0.53155408     0.75100
O42         O  0.87716571  0.44443628  0.51695405    -0.58600
C43         C  0.90720574  0.40486603  0.49012058     0.75100
C44         C  0.85342085  0.41016142  0.47777246     0.77500
Cd45       Cd  0.87597461  0.41461757  0.50617833     1.37500
O46         O  0.85301391  0.41576449  0.52612825    -0.57500
O47         O  0.85963865  0.39829395  0.48639625    -0.56300
C48         C  0.88784362  0.44103650  0.52840635     0.77500
O49         O  0.85780284  0.42507919  0.48198941    -0.58700
O50         O  0.86521588  0.39146759  0.52519674    -0.57100
O51         O  0.89985717  0.41872891  0.48712080    -0.57100
O52         O  0.89341775  0.42605889  0.52862370    -0.56300
O53         O  0.38598545  0.37206161  0.74705921    -0.57500
C54         C  0.38679658  0.40692025  0.77847198     0.75100
O55         O  0.36189252  0.40417548  0.72356093    -0.58600
C56         C  0.37652342  0.36286783  0.73798157     0.75100
C57         C  0.33302248  0.38691797  0.77263358     0.77500
Cd58       Cd  0.36383556  0.39364212  0.75345826     1.37500
O59         O  0.37565916  0.39604275  0.78212730    -0.57500
O60         O  0.34197274  0.37528233  0.76646469    -0.56300
C61         C  0.36098478  0.41963673  0.72748759     0.77500
O62         O  0.33747069  0.40182000  0.76890102    -0.58700
O63         O  0.38874344  0.41005663  0.76293229    -0.57100
O64         O  0.36156432  0.36797960  0.73615293    -0.57100
O65         O  0.35968438  0.42275899  0.74306537    -0.56300
O66         O  0.39890112  0.50505501  0.88143042    -0.57500
C67         C  0.39091644  0.53255483  0.83432189     0.75100
O68         O  0.44268592  0.52697286  0.85230197    -0.58600
C69         C  0.40983494  0.49419687  0.88572526     0.75100
C70         C  0.41643447  0.48367291  0.83399670     0.77500
Cd71       Cd  0.41426116  0.51336819  0.85496830     1.37500
O72         O  0.38784330  0.53044865  0.84992322    -0.57500
O73         O  0.40453446  0.48608065  0.84436748    -0.56300
C74         C  0.44027675  0.53774737  0.86390722     0.77500
O75         O  0.42782683  0.49497904  0.83338515    -0.58700
O76         O  0.40418561  0.52577055  0.82881294    -0.57100
O77         O  0.42262733  0.49299430  0.87624732    -0.57100
O78         O  0.42615606  0.53701166  0.87127036    -0.56300
O79         O  0.38615928  0.47804017  0.63459477    -0.57500
C80         C  0.40362792  0.51936572  0.59838868     0.75100
O81         O  0.42037438  0.52092903  0.64995672    -0.58600
C82         C  0.38795754  0.47832596  0.65054209     0.75100
C83         C  0.43699393  0.47868708  0.62232258     0.77500
Cd84       Cd  0.40862719  0.50026988  0.62944411     1.37500
O85         O  0.39265101  0.50850702  0.60294900    -0.57500
O86         O  0.42390214  0.47897110  0.61329732    -0.56300
C87         C  0.40681301  0.52936560  0.65070592     0.77500
O88         O  0.43737001  0.48878831  0.63474131    -0.58700
O89         O  0.41648574  0.52058924  0.60772054    -0.57100
O90         O  0.39855729  0.48880331  0.65615581    -0.57100
O91         O  0.39484341  0.52448018  0.64134185    -0.56300
O92         O  0.37175134  0.64423019  0.74470954    -0.57500
C93         C  0.37079419  0.60167227  0.70963032     0.75100
O94         O  0.34377832  0.59842747  0.75986901    -0.58600
C95         C  0.36256859  0.64782575  0.75737332     0.75100
C96         C  0.32665972  0.63069148  0.71761837     0.77500
Cd97       Cd  0.35447605  0.61838646  0.73729836     1.37500
O98         O  0.37972794  0.60962593  0.72032908    -0.57500
O99         O  0.34081257  0.63805677  0.71845554    -0.56300
C100        C  0.35767391  0.59056898  0.76051012     0.77500
O101        O  0.32473468  0.61758720  0.72674247    -0.58700
O102        O  0.35501893  0.60246756  0.71150610    -0.57100
O103        O  0.35062688  0.63767636  0.76053296    -0.57100
O104        O  0.36919740  0.59564416  0.75072818    -0.56300
O105        O  0.47767870  0.65408717  0.36889078    -0.57500
C106        C  0.51331187  0.61457182  0.38183606     0.75100
O107        O  0.52211766  0.66377338  0.40108434    -0.58600
C108        C  0.47020745  0.66491951  0.37805258     0.75100
C109        C  0.47801164  0.63404888  0.42074744     0.77500
Cd110      Cd  0.49729720  0.64560614  0.39205688     1.37500
O111        O  0.50202233  0.62110141  0.37260102    -0.57500
O112        O  0.47810243  0.62664675  0.40657047    -0.56300
C113        C  0.52400608  0.66995365  0.38637472     0.77500
O114        O  0.48773049  0.64677722  0.42226780    -0.58700
O115        O  0.51678449  0.62236394  0.39536735    -0.57100
O116        O  0.47502535  0.66614282  0.39320409    -0.57100
O117        O  0.51394574  0.66468760  0.37521728    -0.56300
O118        O  0.64960393  0.76030595  0.37043533    -0.57500
C119        C  0.60206949  0.73118409  0.36598471     0.75100
O120        O  0.60869723  0.78109315  0.34127696    -0.58600
C121        C  0.65680018  0.77106730  0.36088067     0.75100
C122        C  0.63258203  0.73528312  0.32110280     0.77500
Cd123      Cd  0.62512125  0.75541396  0.35071275     1.37500
O124        O  0.61665116  0.73327808  0.37225047    -0.57500
O125        O  0.64008103  0.73339332  0.33506448    -0.56300
C126        C  0.60606254  0.78580918  0.35640363     0.77500
O127        O  0.62221231  0.74742081  0.32029245    -0.58700
O128        O  0.59864892  0.74017826  0.35327211    -0.57100
O129        O  0.64992559  0.77349067  0.34668154    -0.57100
O130        O  0.61175342  0.77632759  0.36786691    -0.56300
O131        O  0.50971138  0.90589697  0.37573498    -0.57500
C132        C  0.54410218  0.86205758  0.37580950     0.75100
O133        O  0.52969396  0.87960943  0.42201939    -0.58600
C134        C  0.49897206  0.91088452  0.38656600     0.75100
C135        C  0.49139338  0.85601702  0.38862213     0.77500
Cd136      Cd  0.51810691  0.88071324  0.39278745     1.37500
O137        O  0.53563630  0.87281933  0.36751429    -0.57500
O138        O  0.49919672  0.86300788  0.37655779    -0.56300
C139        C  0.53972128  0.89201037  0.41979773     0.77500
O140        O  0.49604181  0.86021135  0.40340802    -0.58700
O141        O  0.54085750  0.86089397  0.39139956    -0.57100
O142        O  0.49774200  0.90221903  0.39995866    -0.57100
O143        O  0.53886026  0.89950105  0.40567786    -0.56300
O144        O  0.37154375  0.76755171  0.35814443    -0.57500
C145        C  0.42108752  0.79328285  0.35157578     0.75100
O146        O  0.41252619  0.74566503  0.32606755    -0.58600
C147        C  0.36334664  0.75751117  0.34864095     0.75100
C148        C  0.38649933  0.79235674  0.31105649     0.77500
Cd149      Cd  0.39610009  0.77013850  0.33818957     1.37500
O150        O  0.40870964  0.78899826  0.36087913    -0.57500
O151        O  0.38088930  0.79379324  0.32596375    -0.56300
C152        C  0.41461536  0.73878722  0.34040311     0.77500
O153        O  0.39593214  0.77973987  0.30816454    -0.58700
O154        O  0.42169593  0.78654002  0.33713284    -0.57100
O155        O  0.37012731  0.75399863  0.33457094    -0.57100
O156        O  0.40806846  0.74628304  0.35288817    -0.56300
O157        O  0.09650542  0.75330746  0.12112211    -0.57500
C158        C  0.15018010  0.77247410  0.13093452     0.75100
O159        O  0.11443717  0.78837296  0.14521197    -0.58600
C160        C  0.09924888  0.73775716  0.11889613     0.75100
C161        C  0.12478613  0.73471290  0.17135657     0.77500
Cd162      Cd  0.11870196  0.75769090  0.14296900     1.37500
O163        O  0.14016525  0.76503814  0.12089927    -0.57500
O164        O  0.13286887  0.73445267  0.15761471    -0.56300
C165        C  0.09878614  0.78792045  0.14805134     0.77500
O166        O  0.11382945  0.74625656  0.17266790    -0.58700
O167        O  0.14603663  0.77222838  0.14636973    -0.57100
O168        O  0.11192499  0.73187222  0.12644334    -0.57100
O169        O  0.09245381  0.77337163  0.15040908    -0.56300
O170        O  0.01018291  0.62278363  0.11336997    -0.57500
C171        C  0.97848827  0.66626348  0.11912272     0.75100
O172        O  0.02079394  0.66972215  0.08402671    -0.58600
C173        C  0.01910544  0.61657858  0.10157079     0.75100
C174        C  0.97769756  0.64186067  0.06846808     0.77500
Cd175      Cd  0.00092393  0.64805466  0.09638551     1.37500
O176        O  0.97767552  0.65030989  0.11783925    -0.57500
O177        O  0.97911933  0.63200219  0.08093181    -0.56300
C178        C  0.03107079  0.66861250  0.09624324     0.77500
O179        O  0.98768741  0.65442708  0.06825546    -0.58700
O180        O  0.99037333  0.67337516  0.11122373    -0.57100
O181        O  0.01889558  0.62450919  0.08768396    -0.57100
O182        O  0.02725999  0.65829819  0.10785329    -0.56300
O183        O  0.91732289  0.77890988  0.12273364    -0.57500
C184        C  0.86541272  0.75285128  0.13958790     0.75100
O185        O  0.90625661  0.74113176  0.13907672    -0.58600
C186        C  0.91120877  0.79328353  0.11972806     0.75100
C187        C  0.89212923  0.79261380  0.17440871     0.77500
Cd188      Cd  0.89685908  0.77051983  0.14503538     1.37500
O189        O  0.87215195  0.76113526  0.12760032    -0.57500
O190        O  0.88067998  0.78978045  0.16372979    -0.56300
C191        C  0.91964196  0.74168208  0.14764980     0.77500
O192        O  0.90571071  0.78457066  0.17214740    -0.58700
O193        O  0.87288549  0.75350184  0.15366277    -0.57100
O194        O  0.89747817  0.79654498  0.12710161    -0.57100
O195        O  0.92216957  0.75523761  0.15584647    -0.56300
O196        O  0.00261647  0.89834982  0.11464645    -0.57500
C197        C  0.03060390  0.85503299  0.12216390     0.75100
O198        O  0.99959286  0.84875909  0.08346275    -0.58600
C199        C  0.99464436  0.90532950  0.10266237     0.75100
C200        C  0.03873687  0.88229010  0.07111133     0.77500
Cd201      Cd  0.01296141  0.87426873  0.09637783     1.37500
O202        O  0.03600612  0.86931588  0.11739444    -0.57500
O203        O  0.03700223  0.88993446  0.08500434    -0.56300
C204        C  0.98504194  0.85177890  0.08939367     0.77500
O205        O  0.02804986  0.87069527  0.06817994    -0.58700
O206        O  0.01640301  0.85072786  0.11651992    -0.57100
O207        O  0.99576545  0.89823715  0.08839137    -0.57100
O208        O  0.98333958  0.86565634  0.09712375    -0.56300
O209        O  0.42446108  0.27228035  0.63298437    -0.57500
C210        C  0.36897822  0.24436576  0.64400236     0.75100
O211        O  0.41075217  0.23519061  0.63918348    -0.58600
C212        C  0.41793167  0.28555984  0.62724004     0.75100
C213        C  0.39221262  0.28324554  0.67865000     0.77500
Cd214      Cd  0.40040735  0.26221315  0.64971619     1.37500
O215        O  0.37464570  0.25437072  0.63275340    -0.57500
O216        O  0.38276439  0.28084560  0.66610794    -0.56300
C217        C  0.42257537  0.23341794  0.64970082     0.77500
O218        O  0.40607368  0.27534438  0.67851548    -0.58700
O219        O  0.37786163  0.24284594  0.65714879    -0.57100
O220        O  0.40249234  0.28761097  0.63059875    -0.57100
O221        O  0.42384027  0.24467894  0.66108963    -0.56300
O222        O  0.51142973  0.12086896  0.60821577    -0.57500
C223        C  0.47840344  0.15889802  0.61434659     0.75100
O224        O  0.51214038  0.17479632  0.58516590    -0.58600
C225        C  0.52114102  0.11475121  0.59703734     0.75100
C226        C  0.48105483  0.13820165  0.56059631     0.77500
Cd227      Cd  0.50203333  0.14516820  0.58991468     1.37500
O228        O  0.47411218  0.14796054  0.60355119    -0.57500
O229        O  0.48133989  0.12899282  0.57361082    -0.56300
C230        C  0.52740064  0.17182146  0.58864748     0.77500
O231        O  0.49129636  0.15056457  0.56045863    -0.58700
O232        O  0.49400061  0.16188451  0.61536863    -0.57100
O233        O  0.52134090  0.12232981  0.58297731    -0.57100
O234        O  0.53111045  0.15646562  0.59083033    -0.56300
O235        O  0.59495667  0.23807981  0.63636672    -0.57500
C236        C  0.65250068  0.26770800  0.64309465     0.75100
O237        O  0.59988739  0.26978218  0.65948747    -0.58600
C238        C  0.60134587  0.22868218  0.62518972     0.75100
C239        C  0.62815372  0.22635122  0.67580130     0.77500
Cd240      Cd  0.62127173  0.24940085  0.64811442     1.37500
O241        O  0.64720364  0.25771247  0.63168253    -0.57500
O242        O  0.63612817  0.22608980  0.66196539    -0.56300
C243        C  0.60272529  0.28062627  0.64797379     0.77500
O244        O  0.61708250  0.23776512  0.67728793    -0.58700
O245        O  0.64411189  0.26796506  0.65671027    -0.57100
O246        O  0.61726813  0.22911998  0.62394187    -0.57100
O247        O  0.61359230  0.27671165  0.63697173    -0.56300
O248        O  0.51006008  0.39445370  0.62637416    -0.57500
C249        C  0.53907868  0.35437147  0.63009376     0.75100
O250        O  0.50751105  0.34368391  0.59772558    -0.58600
C251        C  0.50201237  0.40298516  0.61554397     0.75100
C252        C  0.53991131  0.37895911  0.57700152     0.77500
Cd253      Cd  0.51827990  0.37180744  0.60585290     1.37500
O254        O  0.54518088  0.36428495  0.61914512    -0.57500
O255        O  0.54077471  0.38699707  0.59077871    -0.56300
C256        C  0.49214863  0.34679143  0.60052029     0.77500
O257        O  0.52848158  0.36776411  0.57612144    -0.58700
O258        O  0.52322141  0.35418410  0.63133889    -0.57100
O259        O  0.50206864  0.39728548  0.60062781    -0.57100
O260        O  0.48865435  0.36193158  0.60419020    -0.56300
O261        O  0.38268613  0.14830206  0.24190003    -0.57500
C262        C  0.38442788  0.11273356  0.27413852     0.75100
O263        O  0.33271948  0.12412956  0.26663458    -0.58600
C264        C  0.37293505  0.15710260  0.23282583     0.75100
C265        C  0.35458409  0.10362884  0.22440684     0.77500
Cd266      Cd  0.36048749  0.12808687  0.25111699     1.37500
O267        O  0.38390448  0.10862270  0.25873429    -0.57500
O268        O  0.35139047  0.10024144  0.23972391    -0.56300
C269        C  0.33276792  0.13891306  0.27283294     0.77500
O270        O  0.35858481  0.11877093  0.22127592    -0.58700
O271        O  0.37524652  0.12501384  0.27838948    -0.57100
O272        O  0.35761583  0.15264909  0.23266050    -0.57100
O273        O  0.34462584  0.14843639  0.26799564    -0.56300
O274        O  0.38762376  0.01134034  0.10502583    -0.57500
C275        C  0.38283259  0.04444680  0.14908903     0.75100
O276        O  0.41524749  0.99997795  0.15107691    -0.58600
C277        C  0.39972243  0.00279108  0.09892443     0.75100
C278        C  0.43065730  0.04522129  0.12261719     0.77500
Cd279      Cd  0.40405956  0.02135544  0.13029954     1.37500
O280        O  0.38213470  0.04414560  0.13308678    -0.57500
O281        O  0.41697937  0.04395910  0.11461010    -0.56300
C282        C  0.40199898  0.99090129  0.15028079     0.77500
O283        O  0.43280468  0.03469889  0.13454739    -0.58700
O284        O  0.39231924  0.03367317  0.15590349    -0.57100
O285        O  0.41356409  0.00378867  0.10676873    -0.57100
O286        O  0.39034707  0.99625066  0.14084978    -0.56300
O287        O  0.38115248  0.91985761  0.23234032    -0.57500
C288        C  0.35975517  0.87325678  0.25723452     0.75100
O289        O  0.35676268  0.91477309  0.26685890    -0.58600
C290        C  0.37955458  0.91964232  0.21646796     0.75100
C291        C  0.32603434  0.89606683  0.21635929     0.77500
Cd292      Cd  0.35423173  0.90391705  0.23820572     1.37500
O293        O  0.37060038  0.87825757  0.24650804    -0.57500
O294        O  0.33870724  0.88660057  0.21795856    -0.56300
C295        C  0.35019418  0.92903390  0.26428009     0.77500
O296        O  0.32571917  0.90907822  0.22573004    -0.58700
O297        O  0.34659251  0.88208635  0.25852751    -0.57100
O298        O  0.36772163  0.91055146  0.21089742    -0.57100
O299        O  0.34426196  0.93151996  0.24964795    -0.56300
O300        O  0.39275458  0.01585558  0.37878702    -0.57500
C301        C  0.38382286  0.98721179  0.33703199     0.75100
O302        O  0.42129058  0.02309702  0.32798843    -0.58600
C303        C  0.40397718  0.02572313  0.38456998     0.75100
C304        C  0.43788255  0.98546174  0.35801478     0.77500
Cd305      Cd  0.40954740  0.00804811  0.35301323     1.37500
O306        O  0.38928052  0.98389224  0.35162711    -0.57500
O307        O  0.42594265  0.98693936  0.36844822    -0.56300
C308        C  0.41337154  0.03672535  0.33069295     0.77500
O309        O  0.43724068  0.99495116  0.34516921    -0.58700
O310        O  0.38907462  0.00082666  0.33057990    -0.57100
O311        O  0.41746630  0.02677959  0.37609810    -0.57100
O312        O  0.40445659  0.03719957  0.34394821    -0.56300
O313        O  0.36194152  0.13014906  0.46957399    -0.57500
C314        C  0.40200985  0.11094280  0.50485271     0.75100
O315        O  0.35021735  0.09563912  0.51172472    -0.58600
C316        C  0.34915653  0.12214435  0.46407134     0.75100
C317        C  0.37793912  0.07832420  0.46667945     0.77500
Cd318      Cd  0.36970235  0.10593155  0.48898934     1.37500
O319        O  0.39636958  0.12206096  0.49476268    -0.57500
O320        O  0.38463977  0.09285300  0.46574432    -0.56300
C321        C  0.34830953  0.11020586  0.51820993     0.77500
O322        O  0.36765162  0.07596437  0.47879688    -0.58700
O323        O  0.39288542  0.09794807  0.50701582    -0.57100
O324        O  0.34620882  0.10786557  0.47060551    -0.57100
O325        O  0.35616706  0.12223978  0.51113879    -0.56300
O326        O  0.25794085  0.14614112  0.63763989    -0.57500
C327        C  0.29164084  0.14768528  0.59222183     0.75100
O328        O  0.24212980  0.17373142  0.59206380    -0.58600
C329        C  0.24674743  0.15648835  0.64258325     0.75100
C330        C  0.28630252  0.19155164  0.62030291     0.77500
Cd331      Cd  0.26502401  0.16323635  0.61151037     1.37500
O332        O  0.28350416  0.13860106  0.60272860    -0.57500
O333        O  0.28638859  0.17775548  0.62845840    -0.56300
C334        C  0.23786086  0.15889617  0.58758117     0.77500
O335        O  0.27520694  0.19291904  0.60885263    -0.58700
O336        O  0.28745885  0.16302732  0.59130629    -0.57100
O337        O  0.24477045  0.16949675  0.63351264    -0.57100
O338        O  0.24632853  0.14695033  0.59382130    -0.56300
O339        O  0.12116086  0.12358083  0.49743365    -0.57500
C340        C  0.16775805  0.11898090  0.52690615     0.75100
O341        O  0.14714676  0.07442463  0.51056235    -0.58600
C342        C  0.11542568  0.11564017  0.48471172     0.75100
C343        C  0.16953914  0.10962595  0.47376797     0.77500
Cd344      Cd  0.14606346  0.10469208  0.50134986     1.37500
O345        O  0.15593735  0.12805307  0.52107599    -0.57500
O346        O  0.16518152  0.12094170  0.48414800    -0.56300
C347        C  0.13631195  0.07612298  0.52228082     0.77500
O348        O  0.16319011  0.09501653  0.47610995    -0.58700
O349        O  0.16880965  0.10414638  0.52107392    -0.57100
O350        O  0.12364540  0.10274297  0.48011549    -0.57100
O351        O  0.12909067  0.09034062  0.52310808    -0.56300
O352        O  0.25701589  0.14758450  0.35583432    -0.57500
C353        C  0.23040810  0.15201415  0.40477900     0.75100
O354        O  0.27768930  0.17769918  0.39788665    -0.58600
C355        C  0.26826515  0.15659766  0.34871806     0.75100
C356        C  0.23183551  0.19502411  0.37237863     0.77500
Cd357      Cd  0.25338803  0.16698751  0.38055511     1.37500
O358        O  0.23331096  0.14420896  0.39103798    -0.57500
O359        O  0.22967602  0.18017888  0.36677540    -0.56300
C360        C  0.28288897  0.16283792  0.40094248     0.77500
O361        O  0.24501656  0.19751762  0.38109371    -0.58700
O362        O  0.23809203  0.16589236  0.40676513    -0.57100
O363        O  0.27176769  0.17049816  0.35587794    -0.57100
O364        O  0.27468208  0.15084048  0.39429250    -0.56300
O365        O  0.76405629  0.64371385  0.13639473    -0.57500
C366        C  0.79001631  0.63923322  0.09142529     0.75100
O367        O  0.74505007  0.67128456  0.09108531    -0.58600
C368        C  0.75441488  0.65399996  0.14398792     0.75100
C369        C  0.78943601  0.69132888  0.11445819     0.77500
Cd370      Cd  0.76801017  0.66149754  0.11074483     1.37500
O371        O  0.79213979  0.64159907  0.10708538    -0.57500
O372        O  0.78886688  0.67934491  0.12497225    -0.56300
C373        C  0.73573157  0.65850668  0.09403581     0.77500
O374        O  0.77926018  0.69025994  0.10218615    -0.58700
O375        O  0.77731158  0.64625764  0.08503856    -0.57100
O376        O  0.75188869  0.66797426  0.13661492    -0.57100
O377        O  0.74126483  0.64797955  0.10463050    -0.56300
O378        O  0.89528850  0.62454923  0.99914291    -0.57500
C379        C  0.85369964  0.63015445  0.96653575     0.75100
O380        O  0.86592581  0.57753485  0.97694060    -0.58600
C381        C  0.90131836  0.61311902  0.00860650     0.75100
C382        C  0.84728434  0.60517694  0.01694748     0.77500
Cd383      Cd  0.87089477  0.60670775  0.98912184     1.37500
O384        O  0.84752454  0.62504823  0.98029891    -0.57500
O385        O  0.84550968  0.59555989  0.00421562    -0.56300
C386        C  0.87836371  0.57831284  0.96687957     0.77500
O387        O  0.86034422  0.61436851  0.01716776    -0.58700
O388        O  0.86875856  0.62583995  0.96367191    -0.57100
O389        O  0.89368551  0.59903579  0.00839008    -0.57100
O390        O  0.88721373  0.59158398  0.96775007    -0.56300
O391        O  0.75799972  0.63827404  0.86499858    -0.57500
C392        C  0.72899013  0.63285856  0.90682152     0.75100
O393        O  0.76414248  0.66893589  0.91328694    -0.58600
C394        C  0.76636635  0.64928700  0.85685103     0.75100
C395        C  0.72530179  0.68495404  0.88132155     0.77500
Cd396      Cd  0.74908534  0.65757146  0.88814554     1.37500
O397        O  0.72642239  0.63565057  0.89131005    -0.57500
O398        O  0.72455837  0.67058846  0.87440172    -0.56300
C399        C  0.77766751  0.66092739  0.91045710     0.77500
O400        O  0.73757882  0.68723456  0.89127488    -0.58700
O401        O  0.74144168  0.64042756  0.91319339    -0.57100
O402        O  0.76624731  0.66411896  0.86287622    -0.57100
O403        O  0.77829726  0.65261710  0.89683002    -0.56300
O404        O  0.66292390  0.63469678  0.01383617    -0.57500
C405        C  0.61574304  0.61944241  0.99075309     0.75100
O406        O  0.65647738  0.60679768  0.97816884    -0.58600
C407        C  0.66419199  0.63204140  0.02953136     0.75100
C408        C  0.63467136  0.58125632  0.02969897     0.77500
Cd409      Cd  0.64626546  0.60833474  0.00768145     1.37500
O410        O  0.62403575  0.62928886  0.00031950    -0.57500
O411        O  0.62608625  0.59427039  0.02653378    -0.56300
C412        C  0.67111059  0.60161204  0.98143646     0.77500
O413        O  0.64857997  0.58004730  0.02191115    -0.58700
O414        O  0.62154882  0.60464249  0.98910705    -0.57100
O415        O  0.65581738  0.61966425  0.03515798    -0.57100
O416        O  0.67380126  0.59764340  0.99666219    -0.56300
O417        O  0.13809820  0.11913975  0.71600977    -0.57500
C418        C  0.15038954  0.15441623  0.75627668     0.75100
O419        O  0.14296976  0.11368218  0.76538265    -0.58600
C420        C  0.13697958  0.10318917  0.71696312     0.75100
C421        C  0.18763311  0.12830618  0.71962491     0.77500
Cd422      Cd  0.15791134  0.12229334  0.74033158     1.37500
O423        O  0.14005464  0.14751463  0.74616798    -0.57500
O424        O  0.17446011  0.13716294  0.71906074    -0.56300
C425        C  0.15392341  0.10389417  0.77145990     0.77500
O426        O  0.18768234  0.11653336  0.73052299    -0.58700
O427        O  0.16432080  0.14693804  0.75814889    -0.57100
O428        O  0.14481258  0.09632824  0.72897159    -0.57100
O429        O  0.16743633  0.10220402  0.76298159    -0.56300
O430        O  0.12565413  0.97616682  0.63664617    -0.57500
C431        C  0.11232758  0.02137469  0.60412089     0.75100
O432        O  0.07904709  0.98624798  0.64014744    -0.58600
C433        C  0.13140056  0.97957613  0.65114217     0.75100
C434        C  0.10372044  0.02933325  0.65846803     0.77500
Cd435      Cd  0.10673523  0.00170701  0.63474295     1.37500
O436        O  0.12383977  0.01176125  0.60968021    -0.57500
O437        O  0.11276051  0.03004495  0.64532550    -0.56300
C438        C  0.07864107  0.97968795  0.62552669     0.77500
O439        O  0.09480007  0.01608001  0.66030026    -0.58700
O440        O  0.09880306  0.02159376  0.61259389    -0.57100
O441        O  0.12717490  0.99373077  0.65705950    -0.57100
O442        O  0.09055547  0.98376301  0.61576222    -0.56300
O443        O  0.13899178  0.87770374  0.74980443    -0.57500
C444        C  0.13559635  0.91635395  0.77820242     0.75100
O445        O  0.18672959  0.90947617  0.77068233    -0.58600
C446        C  0.14842374  0.86974633  0.73960201     0.75100
C447        C  0.16363334  0.92327025  0.72689382     0.77500
Cd448      Cd  0.16004543  0.90059137  0.75582240     1.37500
O449        O  0.13862533  0.92178676  0.76351631    -0.57500
O450        O  0.16867152  0.92733854  0.74149752    -0.56300
C451        C  0.18991023  0.89516767  0.77698718     0.77500
O452        O  0.15831887  0.90827958  0.72532152    -0.58700
O453        O  0.14261159  0.90258266  0.78208872    -0.57100
O454        O  0.16311439  0.87571769  0.73757204    -0.57100
O455        O  0.18019287  0.88331544  0.77250523    -0.56300
O456        O  0.12906427  0.01113211  0.88436095    -0.57500
C457        C  0.13025948  0.03962067  0.84466458     0.75100
O458        O  0.10172961  0.00545208  0.83358123    -0.58600
C459        C  0.11963630  0.00142283  0.89299972     0.75100
C460        C  0.07821802  0.03787330  0.86944803     0.77500
Cd461      Cd  0.10742402  0.01693447  0.86205384     1.37500
O462        O  0.11775055  0.04486761  0.85299366    -0.57500
O463        O  0.09014798  0.03585886  0.87976768    -0.56300
C464        C  0.10333485  0.99000766  0.83723896     0.77500
O465        O  0.07894956  0.02907831  0.85610031    -0.58700
O466        O  0.13356488  0.02406712  0.84614751    -0.57100
O467        O  0.10476278  0.99950614  0.88760600    -0.57100
O468        O  0.10503504  0.98673000  0.85275585    -0.56300
O469        O  0.34862798  0.88929526  0.00750911    -0.57500
C470        C  0.40020940  0.90689708  0.98009882     0.75100
O471        O  0.34282972  0.92120341  0.98818785    -0.58600
C472        C  0.35455556  0.88553312  0.02176738     0.75100
C473        C  0.37505107  0.94003504  0.02327368     0.77500
Cd474      Cd  0.36991947  0.91144797  0.00043508     1.37500
O475        O  0.39504387  0.89511572  0.98972211    -0.57500
O476        O  0.38495272  0.92759748  0.02258749    -0.56300
C477        C  0.34530810  0.91425831  0.97395877     0.77500
O478        O  0.36297521  0.93976706  0.01286614    -0.58700
O479        O  0.39191912  0.92050366  0.98065199    -0.57100
O480        O  0.36867840  0.89208488  0.02525235    -0.57100
O481        O  0.35940740  0.90722453  0.97183158    -0.56300
O482        O  0.26221969  0.87767844  0.13012819    -0.57500
C483        C  0.23145155  0.88203154  0.08721298     0.75100
O484        O  0.27055011  0.84390940  0.08379768    -0.58600
C485        C  0.27256742  0.86695430  0.13592191     0.75100
C486        C  0.23016840  0.83237407  0.11524641     0.77500
Cd487      Cd  0.25353735  0.85935897  0.10554298     1.37500
O488        O  0.23014704  0.88050639  0.10308527    -0.57500
O489        O  0.23544892  0.84351014  0.12536413    -0.56300
C490        C  0.28121944  0.85578993  0.08197909     0.77500
O491        O  0.23634602  0.83291382  0.10048844    -0.58700
O492        O  0.24357643  0.87437995  0.08042067    -0.57100
O493        O  0.27394716  0.85332917  0.12764202    -0.57100
O494        O  0.27953503  0.86849640  0.09153573    -0.56300
O495        O  0.25784474  0.87574310  0.86014767    -0.57500
C496        C  0.28789535  0.88095611  0.90017205     0.75100
O497        O  0.25098086  0.84415949  0.90895907    -0.58600
C498        C  0.24904405  0.86461713  0.85265305     0.75100
C499        C  0.28798793  0.82699789  0.87816475     0.77500
Cd500      Cd  0.26617309  0.85627358  0.88391803     1.37500
O501        O  0.29145155  0.87517741  0.88570411    -0.57500
O502        O  0.28409810  0.83723794  0.86659429    -0.56300
C503        C  0.23766365  0.85261185  0.90672101     0.77500
O504        O  0.28104656  0.82958585  0.89233113    -0.58700
O505        O  0.27383115  0.87654510  0.90614857    -0.57100
O506        O  0.24870538  0.85011604  0.85942799    -0.57100
O507        O  0.23722133  0.86156360  0.89352341    -0.56300
O508        O  0.16515375  0.88258215  0.97980370    -0.57500
C509        C  0.11576985  0.89472654  0.00615203     0.75100
O510        O  0.15621158  0.90661149  0.01694880    -0.58600
C511        C  0.16192974  0.88282142  0.96419680     0.75100
C512        C  0.13613296  0.93572809  0.96762255     0.77500
Cd513      Cd  0.14569846  0.90614802  0.98759804     1.37500
O514        O  0.12254083  0.88527093  0.99510363    -0.57500
O515        O  0.12627054  0.92369270  0.97121710    -0.56300
C516        C  0.17115518  0.91086137  0.01340913     0.77500
O517        O  0.15068809  0.93484743  0.97401520    -0.58700
O518        O  0.12273493  0.90897981  0.00831173    -0.57100
O519        O  0.14987663  0.89221686  0.95983863    -0.57100
O520        O  0.17397296  0.91468394  0.99814023    -0.56300
O521        O  0.37115793  0.75891464  0.86164875    -0.57500
C522        C  0.41195716  0.72695727  0.86825626     0.75100
O523        O  0.40165208  0.73644302  0.81503927    -0.58600
C524        C  0.36414315  0.76714968  0.84986680     0.75100
C525        C  0.41798799  0.77682734  0.83954533     0.77500
Cd526      Cd  0.39523535  0.74866860  0.84355855     1.37500
O527        O  0.41827186  0.74068442  0.86312109    -0.57500
O528        O  0.42032308  0.76329454  0.83128532    -0.56300
C529        C  0.38918419  0.72641257  0.81500876     0.77500
O530        O  0.40493658  0.77738537  0.84869285    -0.58700
O531        O  0.39716964  0.72382816  0.86322196    -0.57100
O532        O  0.37120767  0.76630387  0.83555015    -0.57100
O533        O  0.37948882  0.72729079  0.82764965    -0.56300
O534        O  0.50426311  0.62240659  0.88679249    -0.57500
C535        C  0.53273563  0.66608312  0.88024858     0.75100
O536        O  0.49669500  0.67163275  0.91585314    -0.58600
C537        C  0.49432316  0.61618337  0.89776859     0.75100
C538        C  0.53691871  0.63637111  0.93026150     0.77500
Cd539      Cd  0.51281440  0.64692877  0.90448654     1.37500
O540        O  0.52447782  0.67268500  0.89213176    -0.57500
O541        O  0.53508651  0.62926202  0.91612374    -0.56300
C542        C  0.48428652  0.66971375  0.90594685     0.77500
O543        O  0.52723507  0.64875748  0.93317241    -0.58700
O544        O  0.53167551  0.65014439  0.87896336    -0.57100
O545        O  0.49331111  0.62402496  0.91170679    -0.57100
O546        O  0.48445853  0.65662684  0.89677556    -0.56300
O547        O  0.47259987  0.87058419  0.86728954    -0.57500
C548        C  0.51180512  0.90747563  0.87959595     0.75100
O549        O  0.48768198  0.87146398  0.91833858    -0.58600
C550        C  0.47269023  0.85462481  0.86890820     0.75100
C551        C  0.52555476  0.85569344  0.88094672     0.77500
Cd552      Cd  0.49596003  0.87546216  0.88784686     1.37500
O553        O  0.50121000  0.90075473  0.86963572    -0.57500
O554        O  0.51809058  0.86480017  0.87022676    -0.56300
C555        C  0.47579441  0.88214441  0.91782550     0.77500
O556        O  0.51965204  0.85593125  0.89590850    -0.58700
O557        O  0.51422831  0.89983012  0.89342549    -0.57100
O558        O  0.48339342  0.84858149  0.87896163    -0.57100
O559        O  0.47387250  0.88976192  0.90393474    -0.56300
O560        O  0.64312722  0.75490193  0.86285705    -0.57500
C561        C  0.59891949  0.78982786  0.86113630     0.75100
O562        O  0.61784706  0.77560619  0.81567493    -0.58600
C563        C  0.64644959  0.74201317  0.85384285     0.75100
C564        C  0.59116466  0.73934053  0.84692836     0.77500
Cd565      Cd  0.61816656  0.76362014  0.84496697     1.37500
O566        O  0.61014001  0.78212294  0.86958526    -0.57500
O567        O  0.59901491  0.74137084  0.83306803    -0.56300
C568        C  0.63041808  0.78527190  0.81810741     0.77500
O569        O  0.59593846  0.74820338  0.85931378    -0.58700
O570        O  0.59752042  0.78572678  0.84577575    -0.57100
O571        O  0.63697657  0.73963185  0.84122637    -0.57100
O572        O  0.63778363  0.78383275  0.83218627    -0.56300
O573        O  0.75835334  0.14389039  0.13844738    -0.57500
C574        C  0.72619212  0.13806659  0.09829672     0.75100
O575        O  0.73818604  0.18996212  0.10622687    -0.58600
C576        C  0.76730440  0.15536507  0.14522577     0.75100
C577        C  0.77629593  0.16514118  0.08847154     0.77500
Cd578      Cd  0.74977445  0.16172095  0.11366024     1.37500
O579        O  0.74165000  0.13443221  0.09923176    -0.57500
O580        O  0.76161456  0.17061276  0.08579296    -0.56300
C581        C  0.72918123  0.19135000  0.11938721     0.77500
O582        O  0.77888594  0.15910877  0.10297773    -0.58700
O583        O  0.72163717  0.15093021  0.10650541    -0.57100
O584        O  0.76738693  0.16954787  0.13783672    -0.57100
O585        O  0.73064767  0.17972663  0.13025515    -0.56300
O586        O  0.89626602  0.13812624  0.00192959    -0.57500
C587        C  0.85183959  0.13900765  0.02885544     0.75100
O588        O  0.85279085  0.10685591  0.98308751    -0.58600
C589        C  0.90496092  0.12760180  0.99355813     0.75100
C590        C  0.87714312  0.08791916  0.02656629     0.77500
Cd591      Cd  0.87185198  0.11820661  0.00610585     1.37500
O592        O  0.86753518  0.13735588  0.03084128    -0.57500
O593        O  0.88671289  0.10070095  0.02676198    -0.56300
C594        C  0.85529263  0.11935862  0.97332573     0.77500
O595        O  0.86497826  0.08853075  0.01625579    -0.58700
O596        O  0.84570252  0.13202223  0.01592124    -0.57100
O597        O  0.89858114  0.11300963  0.99178284    -0.57100
O598        O  0.86529960  0.13059209  0.97870577    -0.56300
O599        O  0.75914926  0.13920822  0.85626523    -0.57500
C600        C  0.79239471  0.13518494  0.89748274     0.75100
O601        O  0.78095834  0.18709695  0.88158033    -0.58600
C602        C  0.74961912  0.15062088  0.85029723     0.75100
C603        C  0.74309413  0.16077406  0.90675232     0.77500
Cd604      Cd  0.76877251  0.15750818  0.88060292     1.37500
O605        O  0.77765749  0.12989957  0.89423274    -0.57500
O606        O  0.75820965  0.16513787  0.90939482    -0.56300
C607        C  0.79066733  0.18458827  0.86903641     0.77500
O608        O  0.73959824  0.15667001  0.89177865    -0.58700
O609        O  0.79632219  0.14926217  0.89111618    -0.57100
O610        O  0.74975111  0.16466168  0.85795302    -0.57100
O611        O  0.78932512  0.17035867  0.86186992    -0.56300
O612        O  0.62113983  0.12872085  0.99556810    -0.57500
C613        C  0.66820336  0.13220641  0.96703589     0.75100
O614        O  0.66560816  0.10352772  0.01472955    -0.58600
C615        C  0.61477464  0.11706075  0.00464912     0.75100
C616        C  0.64152916  0.08380933  0.96872609     0.77500
Cd617      Cd  0.64775893  0.11268286  0.99022837     1.37500
O618        O  0.65238728  0.13435738  0.96761650    -0.57500
O619        O  0.63330312  0.09742378  0.96800658    -0.56300
C620        C  0.66503819  0.11793605  0.02184761     0.77500
O621        O  0.65289464  0.08307167  0.97996324    -0.58700
O622        O  0.67423370  0.12173215  0.97740491    -0.57100
O623        O  0.62354335  0.10387705  0.00651569    -0.57100
O624        O  0.65687412  0.12929919  0.01420577    -0.56300
O625        O  0.51232083  0.12314266  0.11606452    -0.57500
C626        C  0.54624404  0.15875442  0.11633241     0.75100
O627        O  0.52965905  0.15402185  0.06622185    -0.58600
C628        C  0.50049465  0.11701437  0.10722775     0.75100
C629        C  0.49558093  0.17274607  0.09252712     0.77500
Cd630      Cd  0.51979922  0.14582298  0.09487148     1.37500
O631        O  0.53090415  0.16098166  0.12008297    -0.57500
O632        O  0.51068671  0.17523311  0.09681402    -0.56300
C633        C  0.53761918  0.14049473  0.06343180     0.77500
O634        O  0.49175897  0.15781771  0.08828595    -0.58700
O635        O  0.54913310  0.14894560  0.10405286    -0.57100
O636        O  0.49834293  0.12376103  0.09295237    -0.57100
O637        O  0.53617291  0.12906043  0.07450961    -0.56300
O638        O  0.37696382  0.25972791  0.11802395    -0.57500
C639        C  0.41946310  0.23110197  0.11802422     0.75100
O640        O  0.41809800  0.27381069  0.15463886    -0.58600
C641        C  0.36900690  0.26944099  0.12798782     0.75100
C642        C  0.38977272  0.23184776  0.16729492     0.77500
Cd643      Cd  0.39946115  0.25323372  0.13909255     1.37500
O644        O  0.40359693  0.22952900  0.11829942    -0.57500
O645        O  0.37979710  0.23622619  0.15574564    -0.56300
C646        C  0.41915920  0.28392508  0.14223279     0.77500
O647        O  0.40454832  0.23785056  0.16636775    -0.58700
O648        O  0.42548594  0.24303516  0.12670281    -0.57100
O649        O  0.37494678  0.27096672  0.14272960    -0.57100
O650        O  0.41100315  0.27987342  0.12915571    -0.56300
O651        O  0.64495182  0.25778736  0.13489646    -0.57500
C652        C  0.59456331  0.28245157  0.13478386     0.75100
O653        O  0.60209469  0.24158433  0.16645935    -0.58600
C654        C  0.65283576  0.25035555  0.14670349     0.75100
C655        C  0.62683927  0.28841152  0.17948877     0.77500
Cd656      Cd  0.61987918  0.26404600  0.15317765     1.37500
O657        O  0.60929524  0.28146254  0.12853976    -0.57500
O658        O  0.63272224  0.28988091  0.16467368    -0.56300
C659        C  0.60240972  0.23206884  0.15354130     0.77500
O660        O  0.61791988  0.27537048  0.18237578    -0.58700
O661        O  0.59223472  0.27505212  0.14871647    -0.57100
O662        O  0.64575975  0.25022983  0.16105731    -0.57100
O663        O  0.61137533  0.23702543  0.14126939    -0.56300
O664        O  0.49105897  0.36140920  0.11946878    -0.57500
C665        C  0.52552844  0.40211698  0.10360003     0.75100
O666        O  0.52862935  0.35600058  0.08141069    -0.58600
C667        C  0.47691529  0.35950285  0.11234321     0.75100
C668        C  0.48653497  0.38246743  0.06335476     0.77500
Cd669      Cd  0.50498397  0.37350454  0.09338148     1.37500
O670        O  0.51150260  0.39959198  0.11093120    -0.57500
O671        O  0.49116169  0.39310515  0.07436508    -0.56300
C672        C  0.52928178  0.34656428  0.09433514     0.77500
O673        O  0.49188548  0.36748386  0.06520015    -0.58700
O674        O  0.52925689  0.39186633  0.09197842    -0.57100
O675        O  0.47566590  0.36563134  0.09769444    -0.57100
O676        O  0.51812888  0.34895656  0.10544946    -0.56300
O677        O  0.64421347  0.36948170  0.25024875    -0.57500
C678        C  0.64026578  0.41105328  0.28550952     0.75100
O679        O  0.68948367  0.39633700  0.27160827    -0.58600
C680        C  0.65378238  0.36662921  0.23769099     0.75100
C681        C  0.65631972  0.42293367  0.23652333     0.77500
Cd682      Cd  0.66020480  0.39509858  0.25961005     1.37500
O683        O  0.63344420  0.40024775  0.27577439    -0.57500
O684        O  0.67067711  0.41603281  0.23779002    -0.56300
C685        C  0.68762473  0.38287175  0.28019030     0.77500
O686        O  0.64469469  0.41694183  0.24562587    -0.58700
O687        O  0.65598909  0.41316633  0.28386214    -0.57100
O688        O  0.66584491  0.37690423  0.23551532    -0.57100
O689        O  0.67362398  0.37532770  0.27871322    -0.56300
O690        O  0.62516530  0.51578434  0.38814798    -0.57500
C691        C  0.61969011  0.54182436  0.33865350     0.75100
O692        O  0.59748595  0.49085253  0.34735551    -0.58600
C693        C  0.61608091  0.50469717  0.39550574     0.75100
C694        C  0.57754713  0.53815486  0.37181419     0.77500
Cd695      Cd  0.60622362  0.51775586  0.36277695     1.37500
O696        O  0.62828809  0.53832323  0.35170753    -0.57500
O697        O  0.59149829  0.53860352  0.37948310    -0.56300
C698        C  0.61272726  0.48633896  0.34546380     0.77500
O699        O  0.57612385  0.52724914  0.36010312    -0.58700
O700        O  0.60577147  0.53417875  0.33720452    -0.57100
O701        O  0.60253634  0.50062442  0.38809013    -0.57100
O702        O  0.62379836  0.49647024  0.35090136    -0.56300
O703        O  0.62855929  0.51026616  0.11614061    -0.57500
C704        C  0.62707887  0.48358046  0.16233344     0.75100
O705        O  0.59573288  0.52886840  0.15658562    -0.58600
C706        C  0.61843605  0.51880287  0.10722813     0.75100
C707        C  0.58120446  0.48178598  0.13216913     0.77500
Cd708      Cd  0.60836791  0.50515594  0.13965722     1.37500
O709        O  0.63154841  0.48532386  0.14704555    -0.57500
O710        O  0.59589030  0.48053764  0.12611707    -0.56300
C711        C  0.60956438  0.53690621  0.15773112     0.77500
O712        O  0.57848872  0.49460010  0.14143206    -0.58700
O713        O  0.61438605  0.49199021  0.16696822    -0.57100
O714        O  0.60358162  0.52014922  0.11291383    -0.57100
O715        O  0.62212675  0.53031891  0.15050245    -0.56300
O716        O  0.63787689  0.62049224  0.22277783    -0.57500
C717        C  0.65642052  0.65758590  0.26108797     0.75100
O718        O  0.67314460  0.60703165  0.26289431    -0.58600
C719        C  0.64648997  0.61109388  0.21304607     0.75100
C720        C  0.69069987  0.64013953  0.22079438     0.77500
Cd721      Cd  0.66280573  0.62780112  0.24093582     1.37500
O722        O  0.64619219  0.65368640  0.24936909    -0.57500
O723        O  0.67672816  0.64772143  0.22193328    -0.56300
C724        C  0.65836952  0.60238524  0.26709022     0.77500
O725        O  0.69239067  0.62699609  0.22988967    -0.58700
O726        O  0.66888271  0.64787395  0.26295976    -0.57100
O727        O  0.66203470  0.61003061  0.21615282    -0.57100
O728        O  0.64648397  0.60886999  0.25876939    -0.56300
O729        O  0.14760951  0.75783585  0.63480643    -0.57500
C730        C  0.10335779  0.78764892  0.62892245     0.75100
O731        O  0.10064881  0.74861096  0.66521035    -0.58600
C732        C  0.15360830  0.74872915  0.64653011     0.75100
C733        C  0.13200842  0.79202744  0.67687262     0.77500
Cd734      Cd  0.12264905  0.76694156  0.65177212     1.37500
O735        O  0.11917094  0.78653359  0.62710297    -0.57500
O736        O  0.13919702  0.79035170  0.66273732    -0.56300
C737        C  0.10067968  0.73767526  0.65343820     0.77500
O738        O  0.12017857  0.78165834  0.68005488    -0.58700
O739        O  0.09685835  0.77881011  0.64050092    -0.57100
O740        O  0.14551126  0.74858795  0.66033754    -0.57100
O741        O  0.11128456  0.73994949  0.64168517    -0.56300
O742        O  0.99283576  0.85280699  0.62166249    -0.57500
C743        C  0.01827078  0.90068020  0.60839060     0.75100
O744        O  0.03245855  0.85977589  0.59540687    -0.58600
C745        C  0.97737017  0.85511996  0.61878430     0.75100
C746        C  0.98246630  0.87701200  0.56680283     0.77500
Cd747      Cd  0.00266537  0.86961308  0.59650699     1.37500
O748        O  0.00961151  0.89138036  0.61818233    -0.57500
O749        O  0.98376373  0.88668859  0.57941009    -0.56300
C750        C  0.02892702  0.84419319  0.59463371     0.77500
O751        O  0.99187338  0.86409177  0.56690975    -0.58700
O752        O  0.01958689  0.89562549  0.59327464    -0.57100
O753        O  0.97401600  0.86523841  0.60696910    -0.57100
O754        O  0.01352637  0.84057974  0.59272659    -0.56300
O755        O  0.91281986  0.74683134  0.62459610    -0.57500
C756        C  0.86135231  0.77272537  0.63655120     0.75100
O757        O  0.89797890  0.74182272  0.67495257    -0.58600
C758        C  0.90889402  0.73137960  0.62387802     0.75100
C759        C  0.91600513  0.78293505  0.65028264     0.77500
Cd760      Cd  0.89212979  0.75524460  0.64667293     1.37500
O761        O  0.86856062  0.76236628  0.62666244    -0.57500
O762        O  0.90328978  0.78344162  0.64076909    -0.56300
C763        C  0.88335483  0.73558793  0.67664772     0.77500
O764        O  0.91743211  0.76978011  0.65929800    -0.58700
O765        O  0.86823916  0.77472014  0.65080847    -0.57100
O766        O  0.89607234  0.72711938  0.63237992    -0.57100
O767        O  0.87296314  0.73927079  0.66519852    -0.56300
O768        O  0.00496295  0.63031191  0.61900858    -0.57500
C769        C  0.03898373  0.66660607  0.61966361     0.75100
O770        O  0.02267144  0.65807382  0.56755773    -0.58600
C771        C  0.99687268  0.62090696  0.60886944     0.75100
C772        C  0.98567706  0.67560695  0.59380540     0.77500
Cd773      Cd  0.01341892  0.65189716  0.59737647     1.37500
O774        O  0.04181591  0.65414045  0.61012437    -0.57500
O775        O  0.98340753  0.66016796  0.59724331    -0.56300
C776        C  0.03255217  0.64558489  0.56665248     0.77500
O777        O  0.00075664  0.68002310  0.59093250    -0.58700
O778        O  0.02383662  0.67142126  0.62031393    -0.57100
O779        O  0.99687869  0.62558172  0.59359135    -0.57100
O780        O  0.03259144  0.63584726  0.57927807    -0.56300
O781        O  0.26058040  0.38099774  0.13174257    -0.57500
C782        C  0.29460811  0.38758264  0.09117450     0.75100
O783        O  0.28599871  0.33538463  0.10190695    -0.58600
C784        C  0.25303855  0.36867755  0.13880547     0.75100
C785        C  0.24379446  0.36075926  0.08506978     0.77500
Cd786      Cd  0.27204845  0.36358563  0.10776386     1.37500
O787        O  0.29668596  0.38375366  0.10653561    -0.57500
O788        O  0.24437766  0.37124855  0.09710792    -0.56300
C789        C  0.29488991  0.33603750  0.11517524     0.77500
O790        O  0.25614469  0.35069804  0.08373974    -0.58700
O791        O  0.28149063  0.38175332  0.08436409    -0.57100
O792        O  0.25482433  0.35440487  0.13180845    -0.57100
O793        O  0.29271481  0.34880340  0.12449248    -0.56300
O794        O  0.12592376  0.39158017  0.99754046    -0.57500
C795        C  0.16707715  0.38839675  0.02804301     0.75100
O796        O  0.16030781  0.40312704  0.97593472    -0.58600
C797        C  0.11847550  0.40201646  0.98797629     0.75100
C798        C  0.14441864  0.44062643  0.02468442     0.77500
Cd799      Cd  0.15018885  0.41067552  0.00423555     1.37500
O800        O  0.17177784  0.38978043  0.01287821    -0.57500
O801        O  0.13321932  0.42959358  0.02191337    -0.56300
C802        C  0.17285054  0.41300518  0.97559556     0.77500
O803        O  0.15828671  0.43854558  0.01704979    -0.58700
O804        O  0.15338033  0.39558984  0.03173225    -0.57100
O805        O  0.12547725  0.41633587  0.98634009    -0.57100
O806        O  0.17451110  0.42278428  0.98817928    -0.56300
O807        O  0.22880582  0.37651745  0.88666142    -0.57500
C808        C  0.27169012  0.37563188  0.85156303     0.75100
O809        O  0.27278231  0.35668078  0.90930876    -0.58600
C810        C  0.23213346  0.38437306  0.90014250     0.75100
C811        C  0.23784315  0.33279874  0.87664033     0.77500
Cd812      Cd  0.25695277  0.36345220  0.88289613     1.37500
O813        O  0.26534422  0.38586760  0.86215376    -0.57500
O814        O  0.23837892  0.34513871  0.86655306    -0.56300
C815        C  0.28708359  0.36046101  0.90326276     0.77500
O816        O  0.24726496  0.33389819  0.88948887    -0.58700
O817        O  0.27042600  0.36010125  0.85517861    -0.57100
O818        O  0.24737794  0.38420910  0.90462765    -0.57100
O819        O  0.28741060  0.36428681  0.88779592    -0.56300
O820        O  0.39760179  0.38727847  0.99591316    -0.57500
C821        C  0.35578654  0.38584917  0.97057564     0.75100
O822        O  0.36878794  0.41154934  0.01909819    -0.58600
C823        C  0.40723609  0.39712726  0.00406967     0.75100
C824        C  0.38457251  0.43699810  0.96539102     0.77500
Cd825      Cd  0.37665490  0.40960622  0.98885695     1.37500
O826        O  0.35419064  0.38821378  0.98624458    -0.57500
O827        O  0.39197901  0.42290491  0.96505325    -0.56300
C828        C  0.35395117  0.41665618  0.01651597     0.77500
O829        O  0.37388239  0.43890899  0.97713451    -0.58700
O830        O  0.36823995  0.39304468  0.96361929    -0.57100
O831        O  0.40281572  0.41246336  0.00476815    -0.57100
O832        O  0.35043291  0.42057210  0.00143102    -0.56300
O833        O  0.01365881  0.40261628  0.88139481    -0.57500
C834        C  0.04507931  0.35605368  0.87852803     0.75100
O835        O  0.03255500  0.37571975  0.92606042    -0.58600
C836        C  0.00116272  0.40576804  0.89096277     0.75100
C837        C  0.99264693  0.35273778  0.89365700     0.77500
Cd838      Cd  0.02072312  0.37590982  0.89671076     1.37500
O839        O  0.03780274  0.36811769  0.87090221    -0.57500
O840        O  0.99905442  0.36081306  0.88141483    -0.56300
C841        C  0.04256542  0.38802465  0.92335155     0.77500
O842        O  0.99946766  0.35503549  0.90800574    -0.58700
O843        O  0.04108952  0.35384311  0.89383233    -0.57100
O844        O  0.99845279  0.39548367  0.90292424    -0.57100
O845        O  0.04174080  0.39482424  0.90890534    -0.56300
O846        O  0.15690762  0.26139128  0.86344811    -0.57500
C847        C  0.10844068  0.23078723  0.86744300     0.75100
O848        O  0.11009627  0.27683550  0.84102185    -0.58600
C849        C  0.16130937  0.27196558  0.85212478     0.75100
C850        C  0.13898527  0.22982464  0.82268556     0.77500
Cd851      Cd  0.13011375  0.25346675  0.84893824     1.37500
O852        O  0.12274171  0.23464971  0.87361908    -0.57500
O853        O  0.14519753  0.22959454  0.83740543    -0.56300
C854        C  0.10952486  0.28227293  0.85617188     0.77500
O855        O  0.12846359  0.24151482  0.81958818    -0.58700
O856        O  0.10492501  0.23723997  0.85326285    -0.57100
O857        O  0.15168425  0.27319099  0.83944569    -0.57100
O858        O  0.11837428  0.27447163  0.86687375    -0.56300
O859        O  0.87287111  0.26154695  0.86243161    -0.57500
C860        C  0.91968885  0.29264044  0.85817161     0.75100
O861        O  0.91743150  0.24372497  0.83330752    -0.58600
C862        C  0.86667257  0.24980916  0.85335274     0.75100
C863        C  0.88721943  0.28731264  0.81570891     0.77500
Cd864      Cd  0.89796518  0.26662350  0.84384806     1.37500
O865        O  0.90817688  0.28621309  0.86736574    -0.57500
O866        O  0.88101265  0.28851772  0.83041748    -0.56300
C867        C  0.91985492  0.23779872  0.84801984     0.77500
O868        O  0.89774540  0.27545362  0.81343722    -0.58700
O869        O  0.92083164  0.28691927  0.84332358    -0.57100
O870        O  0.87461197  0.24642821  0.83987318    -0.57100
O871        O  0.91243164  0.24530320  0.85998929    -0.56300
O872        O  0.01021723  0.12098999  0.88796010    -0.57500
C873        C  0.97848631  0.16727954  0.88836513     0.75100
O874        O  0.99430165  0.15052531  0.93380070    -0.58600
C875        C  0.02172345  0.11617102  0.89798615     0.75100
C876        C  0.03192691  0.17043121  0.89490094     0.77500
Cd877      Cd  0.00477563  0.14781866  0.90378924     1.37500
O878        O  0.98459954  0.15479978  0.88030783    -0.57500
O879        O  0.02263673  0.16271559  0.88446838    -0.56300
C880        C  0.98389479  0.13834389  0.93216780     0.77500
O881        O  0.02906478  0.16757579  0.91047750    -0.58700
O882        O  0.98456403  0.17025033  0.90281316    -0.57100
O883        O  0.02493086  0.12584911  0.91034119    -0.57100
O884        O  0.98414225  0.13057982  0.91817869    -0.56300
O885        O  0.87680977  0.40469939  0.72028417    -0.57500
C886        C  0.86030899  0.36749958  0.76027739     0.75100
O887        O  0.84483738  0.41737770  0.76377858    -0.58600
C888        C  0.86829495  0.41643974  0.71346243     0.75100
C889        C  0.82403424  0.38793547  0.72112276     0.77500
Cd890      Cd  0.85329685  0.39747127  0.74061193     1.37500
O891        O  0.86934519  0.37086469  0.74739847    -0.57500
O892        O  0.83771645  0.37978115  0.72051019    -0.56300
C893        C  0.85988829  0.42201530  0.76672773     0.77500
O894        O  0.82334185  0.39993481  0.73178334    -0.58700
O895        O  0.84835653  0.37759421  0.76330346    -0.57100
O896        O  0.85361014  0.41877324  0.71913559    -0.57100
O897        O  0.87118801  0.41550648  0.75754312    -0.56300
O898        O  0.88774652  0.51574414  0.61217561    -0.57500
C899        C  0.88633448  0.54328252  0.66008499     0.75100
O900        O  0.91810598  0.49911354  0.65580486    -0.58600
C901        C  0.89815853  0.50559145  0.60542496     0.75100
C902        C  0.93260573  0.54480725  0.62695891     0.77500
Cd903      Cd  0.90580519  0.52188357  0.63737280     1.37500
O904        O  0.88242038  0.54233987  0.64457143    -0.57500
O905        O  0.91821239  0.54416921  0.62025348    -0.56300
C906        C  0.90427510  0.49097886  0.65670950     0.77500
O907        O  0.93517966  0.53450438  0.63897394    -0.58700
O908        O  0.89868257  0.53440077  0.66464161    -0.57100
O909        O  0.91180146  0.50334389  0.61333008    -0.57100
O910        O  0.89202740  0.49709185  0.64860322    -0.56300
O911        O  0.90046213  0.51259814  0.88279584    -0.57500
C912        C  0.90275771  0.48561597  0.83267678     0.75100
O913        O  0.93041412  0.53080686  0.83915342    -0.58600
C914        C  0.91128441  0.52231645  0.88964151     0.75100
C915        C  0.94571879  0.48568669  0.86567576     0.77500
Cd916      Cd  0.91848011  0.50775956  0.85705865     1.37500
O917        O  0.89502060  0.48873110  0.84641480    -0.57500
O918        O  0.93074163  0.48343557  0.87074103    -0.56300
C919        C  0.91676058  0.53907572  0.83875222     0.77500
O920        O  0.94848012  0.49880490  0.85682843    -0.58700
O921        O  0.91676469  0.49297123  0.83066782    -0.57100
O922        O  0.92511422  0.52410625  0.88184858    -0.57100
O923        O  0.90439034  0.53282084  0.84671696    -0.56300
O924        O  0.88731183  0.61952468  0.77409411    -0.57500
C925        C  0.87208806  0.66028922  0.74273588     0.75100
O926        O  0.85210291  0.61509320  0.73458759    -0.58600
C927        C  0.88070150  0.61688329  0.78845430     0.75100
C928        C  0.83117848  0.64012467  0.78033046     0.77500
Cd929      Cd  0.86087692  0.63059834  0.76126055     1.37500
O930        O  0.88128860  0.65390130  0.75411580    -0.57500
O931        O  0.84335867  0.65010808  0.77763679    -0.56300
C932        C  0.86099815  0.60220898  0.73762158     0.77500
O933        O  0.83199390  0.62580536  0.77313933    -0.58700
O934        O  0.85825526  0.65285539  0.74001755    -0.57100
O935        O  0.86599140  0.62252536  0.79057701    -0.57100
O936        O  0.86834488  0.60216974  0.75170068    -0.56300
O937        O  0.11512435  0.28870728  0.36937332    -0.57500
C938        C  0.15064854  0.25025932  0.35075402     0.75100
O939        O  0.10060147  0.24913111  0.33401099    -0.58600
C940        C  0.10457708  0.29759837  0.36127133     0.75100
C941        C  0.13382683  0.29251301  0.31733940     0.77500
Cd942      Cd  0.12167803  0.27094203  0.34408858     1.37500
O943        O  0.14765645  0.26295389  0.36012484    -0.57500
O944        O  0.14087724  0.29127393  0.33159684    -0.56300
C945        C  0.09476059  0.24688453  0.34882634     0.77500
O946        O  0.12123379  0.28286361  0.31476354    -0.58700
O947        O  0.14045139  0.24763950  0.33876627    -0.57100
O948        O  0.10254661  0.29420170  0.34580949    -0.57100
O949        O  0.10162805  0.25524027  0.36056046    -0.56300
O950        O  0.00610826  0.12670930  0.37630132    -0.57500
C951        C  0.03336758  0.17213655  0.37630461     0.75100
O952        O  0.99650860  0.16945153  0.41266454    -0.58600
C953        C  0.99904849  0.11694578  0.38693453     0.75100
C954        C  0.03992775  0.13650308  0.42101511     0.77500
Cd955      Cd  0.01444324  0.14845016  0.39734912     1.37500
O956        O  0.02640054  0.17609821  0.39008643    -0.57500
O957        O  0.02810260  0.14591541  0.42623636    -0.56300
C958        C  0.98411296  0.16822709  0.40266185     0.77500
O959        O  0.03961720  0.13286304  0.40548859    -0.58700
O960        O  0.03136998  0.15693235  0.37161872    -0.57100
O961        O  0.99941332  0.12169336  0.40222245    -0.57100
O962        O  0.98527336  0.15710753  0.39125937    -0.56300
O963        O  0.89257532  0.22467117  0.37290314    -0.57500
C964        C  0.86044234  0.26661351  0.35492021     0.75100
O965        O  0.91220734  0.27159602  0.34363161    -0.58600
C966        C  0.90852191  0.22475925  0.37393695     0.75100
C967        C  0.88846282  0.22573666  0.32306577     0.77500
Cd968      Cd  0.89185205  0.24833439  0.35173144     1.37500
O969        O  0.86480685  0.25601410  0.36611008    -0.57500
O970        O  0.87793541  0.22651022  0.33502465    -0.56300
C971        C  0.91355755  0.27663410  0.35884905     0.77500
O972        O  0.90067512  0.23613899  0.32368455    -0.58700
O973        O  0.87022409  0.26810180  0.34234393    -0.57100
O974        O  0.91618556  0.23590764  0.36546370    -0.57100
O975        O  0.90454030  0.26906806  0.36969314    -0.56300
O976        O  0.00738243  0.39849947  0.37516066    -0.57500
C977        C  0.97815045  0.35187867  0.37920762     0.75100
O978        O  0.02187688  0.35528569  0.40906369    -0.58600
C979        C  0.01752598  0.40623652  0.38489300     0.75100
C980        C  0.97976238  0.38770102  0.42248410     0.77500
Cd981      Cd  0.00121121  0.37514667  0.39567066     1.37500
O982        O  0.98316867  0.36497951  0.37137562    -0.57500
O983        O  0.97867578  0.39252714  0.40729136    -0.56300
C984        C  0.03093821  0.35433430  0.39587295     0.77500
O985        O  0.99125991  0.37710533  0.42571422    -0.58700
O986        O  0.98382282  0.34995991  0.39395356    -0.57100
O987        O  0.01949839  0.39986057  0.39942894    -0.57100
O988        O  0.02629917  0.36305041  0.38337712    -0.56300
O989        O  0.13277002  0.48021740  0.35546517    -0.57500
C990        C  0.11831822  0.52263866  0.38912883     0.75100
O991        O  0.10279542  0.52533630  0.33777348    -0.58600
C992        C  0.13062573  0.47898584  0.33962209     0.75100
C993        C  0.08308396  0.48168437  0.36931159     0.77500
Cd994      Cd  0.11104263  0.50303639  0.35909370     1.37500
O995        O  0.12815596  0.51099811  0.38418034    -0.57500
O996        O  0.09709138  0.48238148  0.37680690    -0.56300
C997        C  0.11790567  0.53077222  0.33685708     0.77500
O998        O  0.08131803  0.49156109  0.35677059    -0.58700
O999        O  0.10507504  0.52471724  0.38049959    -0.57100
O1000       O  0.11964523  0.48853976  0.33324841    -0.57100
O1001       O  0.12849432  0.52382592  0.34648621    -0.56300
O1002       O  0.14088222  0.37627249  0.24310297    -0.57500
C1003       C  0.13801151  0.41478286  0.21292402     0.75100
O1004       O  0.15911217  0.40736905  0.26621666    -0.58600
C1005       C  0.15085533  0.36806875  0.25249693     0.75100
C1006       C  0.19146695  0.39360852  0.21504385     0.77500
Cd1007     Cd  0.16157295  0.39896037  0.23599431     1.37500
O1008       O  0.14009188  0.42001211  0.22782983    -0.57500
O1009       O  0.18087772  0.38201342  0.21797983    -0.56300
C1010       C  0.16415824  0.42240002  0.26415808     0.77500
O1011       O  0.18908108  0.40734508  0.22286314    -0.58700
O1012       O  0.14529160  0.40108352  0.20924237    -0.57100
O1013       O  0.16567909  0.37390010  0.25371164    -0.57100
O1014       O  0.16967121  0.42602795  0.24958411    -0.56300
O1015       O  0.14133788  0.64992526  0.23845479    -0.57500
C1016       C  0.14106191  0.60313926  0.27001759     0.75100
O1017       O  0.17393699  0.60467590  0.22893266    -0.58600
C1018       C  0.15246137  0.65584786  0.22845493     0.75100
C1019       C  0.18257233  0.63889246  0.27284411     0.77500
Cd1020     Cd  0.15932802  0.62561530  0.24772371     1.37500
O1021       O  0.13346010  0.61572421  0.26365191    -0.57500
O1022       O  0.16745536  0.64371480  0.27156239    -0.56300
C1023       C  0.16145583  0.60293347  0.21906826     0.77500
O1024       O  0.18748071  0.62819056  0.26192361    -0.58700
O1025       O  0.15625578  0.60127990  0.26569428    -0.57100
O1026       O  0.16643923  0.64818071  0.22812250    -0.57100
O1027       O  0.14866735  0.61184610  0.22226251    -0.56300
O1028       O  0.12970322  0.52761138  0.15185823    -0.57500
C1029       C  0.11461119  0.50045752  0.10008846     0.75100
O1030       O  0.09784801  0.50289823  0.15759503    -0.58600
C1031       C  0.13109466  0.54237279  0.14596441     0.75100
C1032       C  0.07823713  0.53885341  0.12681268     0.77500
Cd1033     Cd  0.10785257  0.51782483  0.13159804     1.37500
O1034       O  0.12617272  0.50878990  0.10741110    -0.57500
O1035       O  0.08915873  0.53645917  0.11544815    -0.56300
C1036       C  0.10629671  0.48958384  0.15499484     0.77500
O1037       O  0.08013431  0.53041683  0.14027576    -0.58700
O1038       O  0.10027228  0.50072622  0.10709844    -0.57100
O1039       O  0.12345061  0.54509320  0.13228171    -0.57100
O1040       O  0.11443744  0.48902330  0.14127708    -0.56300
O1041       O  0.28535831  0.64575131  0.38838213    -0.57500
C1042       C  0.24715045  0.65850675  0.34829383     0.75100
O1043       O  0.24025852  0.67610929  0.39736302    -0.58600
C1044       C  0.29135280  0.65502408  0.40008642     0.75100
C1045       C  0.28573241  0.69555697  0.36613583     0.77500
Cd1046     Cd  0.26497114  0.66823328  0.37878821     1.37500
O1047       O  0.25967910  0.65009189  0.35362056    -0.57500
O1048       O  0.28560894  0.68072292  0.36010440    -0.56300
C1049       C  0.23854946  0.66098384  0.40266026     0.77500
O1050       O  0.27528871  0.69849674  0.37800700    -0.58700
O1051       O  0.24309757  0.67134734  0.35696354    -0.57100
O1052       O  0.28526918  0.66973759  0.40136201    -0.57100
O1053       O  0.24880674  0.65023569  0.39689891    -0.56300
O1054       O  0.11177857  0.63360215  0.49308907    -0.57500
C1055       C  0.15990697  0.63568783  0.46073597     0.75100
O1056       O  0.15855327  0.61225579  0.50787841    -0.58600
C1057       C  0.10857690  0.62286517  0.50467269     0.75100
C1058       C  0.12840088  0.59248748  0.46185444     0.77500
Cd1059     Cd  0.13842185  0.61921966  0.48462796     1.37500
O1060       O  0.14580619  0.64245319  0.46437190    -0.57500
O1061       O  0.12190085  0.60709552  0.46181497    -0.56300
C1062       C  0.16110775  0.62775103  0.51157531     0.77500
O1063       O  0.13940412  0.58968222  0.47317289    -0.58700
O1064       O  0.16312371  0.62168785  0.46775876    -0.57100
O1065       O  0.11885989  0.61076528  0.50625760    -0.57100
O1066       O  0.15300584  0.63857428  0.50310103    -0.56300
O1067       O  0.22910492  0.63871976  0.60050767    -0.57500
C1068       C  0.26415275  0.64918205  0.64144241     0.75100
O1069       O  0.27516663  0.67100239  0.59393936    -0.58600
C1070       C  0.22527629  0.64662779  0.58709811     0.75100
C1071       C  0.23013697  0.68996650  0.61883044     0.77500
Cd1072     Cd  0.24986533  0.66073773  0.60994600     1.37500
O1073       O  0.25330790  0.64025959  0.63369628    -0.57500
O1074       O  0.22833320  0.67577597  0.62602765    -0.56300
C1075       C  0.27930896  0.65624466  0.58921063     0.77500
O1076       O  0.24198685  0.69113223  0.60809896    -0.58700
O1077       O  0.26763044  0.66341464  0.63495667    -0.57100
O1078       O  0.23271169  0.66057748  0.58469309    -0.57100
O1079       O  0.27000840  0.64425458  0.59425401    -0.56300
O1080       O  0.39619013  0.62783313  0.49719467    -0.57500
C1081       C  0.34771865  0.62091446  0.52430266     0.75100
O1082       O  0.35527433  0.59952896  0.47398165    -0.58600
C1083       C  0.40359940  0.61853806  0.48639965     0.75100
C1084       C  0.37956336  0.57922313  0.52039704     0.77500
Cd1085     Cd  0.37138927  0.60842739  0.49984697     1.37500
O1086       O  0.36076407  0.62973231  0.52105125    -0.57500
O1087       O  0.38602492  0.59370988  0.52272518    -0.56300
C1088       C  0.35217562  0.61459755  0.46938151     0.77500
O1089       O  0.36997295  0.57772621  0.50765007    -0.58700
O1090       O  0.34592000  0.60743102  0.51592841    -0.57100
O1091       O  0.39646731  0.60463464  0.48284210    -0.57100
O1092       O  0.35801259  0.62619601  0.47871499    -0.56300
O1093       O  0.64374262  0.14200939  0.74266012    -0.57500
C1094       C  0.63537308  0.10031991  0.77290472     0.75100
O1095       O  0.67087125  0.09115101  0.73739448    -0.58600
C1096       C  0.65530832  0.14796295  0.73328158     0.75100
C1097       C  0.68866120  0.12258643  0.77490611     0.77500
Cd1098     Cd  0.66054138  0.11694396  0.75200882     1.37500
O1099       O  0.63864459  0.11588068  0.77481266    -0.57500
O1100       O  0.67481776  0.13027632  0.77609657    -0.56300
C1101       C  0.66215842  0.09343501  0.72419274     0.77500
O1102       O  0.68990602  0.11221053  0.76278001    -0.58700
O1103       O  0.64266696  0.09311699  0.76073396    -0.57100
O1104       O  0.66909342  0.14001533  0.73330661    -0.57100
O1105       O  0.65359176  0.10686398  0.72363420    -0.56300
O1106       O  0.62366696  0.01364340  0.88724871    -0.57500
C1107       C  0.63297505  0.98371468  0.84759077     0.75100
O1108       O  0.57840170  0.99150591  0.85610891    -0.58600
C1109       C  0.61314590  0.02473813  0.89193356     0.75100
C1110       C  0.60326091  0.02888639  0.83433908     0.77500
Cd1111     Cd  0.60689045  0.00488007  0.86170201     1.37500
O1112       O  0.63381670  0.99963568  0.84647373    -0.57500
O1113       O  0.60102423  0.01319416  0.83205179    -0.56300
C1114       C  0.57851509  0.98278558  0.86953410     0.77500
O1115       O  0.60556948  0.03351860  0.84943469    -0.58700
O1116       O  0.62165486  0.97793032  0.85723848    -0.57100
O1117       O  0.60018950  0.02624820  0.88283178    -0.57100
O1118       O  0.59104245  0.98498193  0.87906730    -0.56300
O1119       O  0.63366124  0.87544386  0.75131500    -0.57500
C1120       C  0.63336816  0.92311871  0.72693603     0.75100
O1121       O  0.66594393  0.91931641  0.76725978    -0.58600
C1122       C  0.64401729  0.86644757  0.75951426     0.75100
C1123       C  0.68152466  0.89319764  0.72282454     0.77500
Cd1124     Cd  0.65373293  0.89929791  0.74604100     1.37500
O1125       O  0.63173191  0.90735816  0.72444897    -0.57500
O1126       O  0.66673381  0.88771950  0.72060672    -0.56300
C1127       C  0.65469337  0.91626360  0.77828103     0.77500
O1128       O  0.68399193  0.90144720  0.73634295    -0.58700
O1129       O  0.64338914  0.92734810  0.73853684    -0.57100
O1130       O  0.65886373  0.87224489  0.76060799    -0.57100
O1131       O  0.64384661  0.90516195  0.77450080    -0.56300
O1132       O  0.62675401  0.00477837  0.60796052    -0.57500
C1133       C  0.63210763  0.03648600  0.64800923     0.75100
O1134       O  0.57820703  0.02600637  0.63708354    -0.58600
C1135       C  0.61501009  0.99742481  0.59992233     0.75100
C1136       C  0.60442457  0.98645995  0.65495822     0.77500
Cd1137     Cd  0.60760643  0.01468712  0.63154556     1.37500
O1138       O  0.62878365  0.02180405  0.65329932    -0.57500
O1139       O  0.60006729  0.00127860  0.65914932    -0.56300
C1140       C  0.57918120  0.03739296  0.62584267     0.77500
O1141       O  0.60880239  0.98448195  0.63972478    -0.58700
O1142       O  0.62575163  0.04038302  0.63393259    -0.57100
O1143       O  0.60041659  0.99877109  0.60620109    -0.57100
O1144       O  0.59264905  0.03767776  0.61736405    -0.56300
O1145       O  0.89000375  0.02439860  0.34065038    -0.57500
C1146       C  0.90165207  0.99545215  0.39285022     0.75100
O1147       O  0.90267127  0.98920928  0.35138138    -0.58600
C1148       C  0.88602399  0.03877387  0.34617311     0.75100
C1149       C  0.93766450  0.03807180  0.37350603     0.77500
Cd1150     Cd  0.90944617  0.01650896  0.36374484     1.37500
O1151       O  0.89161037  0.00716510  0.38864761    -0.57500
O1152       O  0.92511724  0.03509998  0.38288444    -0.56300
C1153       C  0.91306938  0.98983286  0.33927785     0.77500
O1154       O  0.93786119  0.03040333  0.35944405    -0.58700
O1155       O  0.91492935  0.99421651  0.38409713    -0.57100
O1156       O  0.89140931  0.04234353  0.36076588    -0.57100
O1157       O  0.92284980  0.00258897  0.33884413    -0.56300
O1158       O  0.87359271  0.14302518  0.25366489    -0.57500
C1159       C  0.88169575  0.10518591  0.22082709     0.75100
O1160       O  0.84621713  0.09251978  0.25670598    -0.58600
C1161       C  0.86170403  0.14999006  0.26180035     0.75100
C1162       C  0.82724292  0.12519518  0.22040715     0.77500
Cd1163     Cd  0.85581048  0.11930691  0.24277436     1.37500
O1164       O  0.87660504  0.09802167  0.23411662    -0.57500
O1165       O  0.83841429  0.13619976  0.22334365    -0.56300
C1166       C  0.85354418  0.09553309  0.27060255     0.77500
O1167       O  0.82861834  0.11144624  0.22848503    -0.58700
O1168       O  0.87589047  0.11980404  0.21816294    -0.57100
O1169       O  0.84737574  0.14301162  0.26062363    -0.57100
O1170       O  0.86052509  0.10985225  0.27191394    -0.56300
O1171       O  0.87902110  0.87669457  0.24254575    -0.57500
C1172       C  0.88395163  0.91879796  0.27549446     0.75100
O1173       O  0.85171279  0.92272981  0.22949452    -0.58600
C1174       C  0.86683911  0.86952981  0.23498655     0.75100
C1175       C  0.83321127  0.89852528  0.27327055     0.77500
Cd1176     Cd  0.86222673  0.90210162  0.25126412     1.37500
O1177       O  0.88123758  0.90302964  0.27625689    -0.57500
O1178       O  0.84434412  0.88731040  0.27148168    -0.56300
C1179       C  0.86474079  0.92113099  0.22028398     0.77500
O1180       O  0.83466960  0.91146772  0.26389267    -0.58700
O1181       O  0.87806982  0.92634087  0.26279411    -0.57100
O1182       O  0.85280238  0.87701163  0.23582761    -0.57100
O1183       O  0.87586954  0.91106575  0.22553207    -0.56300
O1184       O  0.88642381  0.00377657  0.14928749    -0.57500
C1185       C  0.90587068  0.02749377  0.10189298     0.75100
O1186       O  0.92045396  0.02009966  0.16213567    -0.58600
C1187       C  0.88868371  0.98796349  0.14976509     0.75100
C1188       C  0.94109987  0.98753723  0.12627309     0.77500
Cd1189     Cd  0.91306159  0.00995588  0.13335773     1.37500
O1190       O  0.89447808  0.01863018  0.10892887    -0.57500
O1191       O  0.92797302  0.98803339  0.11731066    -0.56300
C1192       C  0.91716481  0.03550923  0.15951621     0.77500
O1193       O  0.94200456  0.99836813  0.13805985    -0.58700
O1194       O  0.92001097  0.02767911  0.10919015    -0.57100
O1195       O  0.90065959  0.98244554  0.14086116    -0.57100
O1196       O  0.91375177  0.03938882  0.14443854    -0.56300
O1197       O  0.76689076  0.88374740  0.35887977    -0.57500
C1198       C  0.73262209  0.88871154  0.39780526     0.75100
O1199       O  0.74150057  0.83624168  0.38696309    -0.58600
C1200       C  0.77474966  0.87195319  0.35139451     0.75100
C1201       C  0.78167886  0.86007207  0.40735309     0.77500
Cd1202     Cd  0.75569388  0.86478360  0.38207306     1.37500
O1203       O  0.74768564  0.88741314  0.40263725    -0.57500
O1204       O  0.76696329  0.85410773  0.40929806    -0.56300
C1205       C  0.73292461  0.83693531  0.37349378     0.77500
O1206       O  0.78478949  0.86678505  0.39319857    -0.58700
O1207       O  0.72902826  0.88097240  0.38433193    -0.57100
O1208       O  0.77354336  0.85744680  0.35803810    -0.57100
O1209       O  0.73572395  0.84960927  0.36419443    -0.56300
O1210       O  0.64864947  0.89535337  0.52941015    -0.57500
C1211       C  0.61681624  0.90152152  0.48383128     0.75100
O1212       O  0.65678664  0.93662024  0.51476785    -0.58600
C1213       C  0.66104737  0.88579997  0.52674628     0.75100
C1214       C  0.67268964  0.91228408  0.47412549     0.77500
Cd1215     Cd  0.64811977  0.90916515  0.50140661     1.37500
O1216       O  0.62400678  0.89062714  0.49306725    -0.57500
O1217       O  0.65893246  0.90439133  0.47245487    -0.56300
C1218       C  0.64288303  0.93898735  0.52224584     0.77500
O1219       O  0.67499226  0.91937215  0.48828105    -0.58700
O1220       O  0.62392686  0.91585796  0.48299520    -0.57100
O1221       O  0.66631284  0.88533611  0.51167528    -0.57100
O1222       O  0.63129478  0.92856310  0.51879951    -0.56300
O1223       O  0.89705415  0.89268756  0.50185816    -0.57500
C1224       C  0.85344473  0.88712669  0.47077455     0.75100
O1225       O  0.84948600  0.91801378  0.51643847    -0.58600
C1226       C  0.90259188  0.90391271  0.51190155     0.75100
C1227       C  0.87651579  0.93738853  0.47214779     0.77500
Cd1228     Cd  0.87090867  0.90876350  0.49457979     1.37500
O1229       O  0.86939059  0.88718486  0.47131132    -0.57500
O1230       O  0.88499772  0.92392622  0.47181812    -0.56300
C1231       C  0.85037910  0.90421191  0.52462470     0.77500
O1232       O  0.86546544  0.93836986  0.48373781    -0.58700
O1233       O  0.84602656  0.89615855  0.48161124    -0.57100
O1234       O  0.89392096  0.91725755  0.51311038    -0.57100
O1235       O  0.86041627  0.89325879  0.51881537    -0.56300
O1236       O  0.75080729  0.87697675  0.63961439    -0.57500
C1237       C  0.78224517  0.88155355  0.59499228     0.75100
O1238       O  0.77253351  0.83146329  0.61241071    -0.58600
C1239       C  0.73945717  0.86654872  0.64420473     0.75100
C1240       C  0.73148458  0.85615055  0.58974739     0.77500
Cd1241     Cd  0.75883132  0.85998231  0.61379857     1.37500
O1242       O  0.76933077  0.88811699  0.60171844    -0.57500
O1243       O  0.74313341  0.84524934  0.59029707    -0.56300
C1244       C  0.78192157  0.83398753  0.62513194     0.77500
O1245       O  0.73251356  0.86809526  0.60025722    -0.58700
O1246       O  0.78429409  0.86603758  0.59780494    -0.57100
O1247       O  0.73809733  0.85323788  0.63541807    -0.57100
O1248       O  0.77959220  0.84770722  0.63305728    -0.56300
C1249       C  0.84038756  0.90050205  0.54011641    -0.04900
C1250       C  0.84549602  0.88705776  0.55048122    -0.04800
C1251       C  0.83576834  0.88189700  0.56420878    -0.23000
C1252       C  0.82053956  0.88991858  0.56783282     0.19200
C1253       C  0.81538304  0.90386405  0.55801084     0.16400
C1254       C  0.82546728  0.90922976  0.54423533    -0.18000
C1255       C  0.79993640  0.91165567  0.56181492    -0.19900
C1256       C  0.78941723  0.90513624  0.57459970    -0.12400
C1257       C  0.79420835  0.89076049  0.58380605     0.04200
C1258       C  0.81006636  0.88362340  0.58065958    -0.24600
H1259       H  0.85697702  0.88023865  0.54777841     0.09300
H1260       H  0.83992929  0.87125181  0.57169261     0.12900
H1261       H  0.82136777  0.91960730  0.53635821     0.12900
H1262       H  0.79572212  0.92240053  0.55451843     0.12600
H1263       H  0.77722581  0.91081817  0.57671780     0.13200
H1264       H  0.81397221  0.87258607  0.58772297     0.15100
C1265       C  0.66978337  0.87709424  0.54082289    -0.04900
C1266       C  0.66596518  0.88165881  0.55756421    -0.04800
C1267       C  0.67642544  0.87685701  0.57084459    -0.23000
C1268       C  0.69089837  0.86731455  0.56767543     0.19200
C1269       C  0.69417716  0.86144764  0.55114190     0.16400
C1270       C  0.68357886  0.86636936  0.53778513    -0.18000
C1271       C  0.70857566  0.85163936  0.54813882    -0.19900
C1272       C  0.72022062  0.84877045  0.56108507    -0.12400
C1273       C  0.71770826  0.85577183  0.57718098     0.04200
C1274       C  0.70265321  0.86444209  0.58055198    -0.24600
H1275       H  0.65543324  0.88985824  0.56031403     0.09300
H1276       H  0.67361507  0.88129012  0.58348360     0.12900
H1277       H  0.68664166  0.86269656  0.52496297     0.12900
H1278       H  0.71121844  0.84683742  0.53560604     0.12600
H1279       H  0.73168558  0.84199519  0.55822364     0.13200
H1280       H  0.70048970  0.86971105  0.59300728     0.15100
C1281       C  0.79410994  0.86049428  0.42127692    -0.04900
C1282       C  0.78835371  0.86051687  0.43805497    -0.04800
C1283       C  0.79929646  0.86427187  0.45131133    -0.23000
C1284       C  0.81627612  0.86788052  0.44806982     0.19200
C1285       C  0.82254641  0.86673127  0.43139806     0.16400
C1286       C  0.81138197  0.86315361  0.41805266    -0.18000
C1287       C  0.83968286  0.87002527  0.42834071    -0.19900
C1288       C  0.85019497  0.87547707  0.44147835    -0.12400
C1289       C  0.84368382  0.87787201  0.45780952     0.04200
C1290       C  0.82684432  0.87347515  0.46110752    -0.24600
H1291       H  0.77513983  0.85860276  0.44086511     0.09300
H1292       H  0.79433028  0.86496653  0.46404455     0.12900
H1293       H  0.81597750  0.86311421  0.40515482     0.12900
H1294       H  0.84479502  0.86903139  0.41568619     0.12600
H1295       H  0.86313159  0.87880662  0.43865058     0.13200
H1296       H  0.82175396  0.87514231  0.47371090     0.15100
C1297       C  0.71953381  0.89716327  0.40821991    -0.04900
C1298       C  0.70247284  0.89530203  0.40390663    -0.04800
C1299       C  0.68978324  0.89931805  0.41548064    -0.23000
C1300       C  0.69388916  0.90527288  0.43162985     0.19200
C1301       C  0.71092142  0.90838242  0.43571122     0.16400
C1302       C  0.72364013  0.90441208  0.42394402    -0.18000
C1303       C  0.71497290  0.91447794  0.45184922    -0.19900
C1304       C  0.70239996  0.91655779  0.46410112    -0.12400
C1305       C  0.68555328  0.91252144  0.46048055     0.04200
C1306       C  0.68133820  0.90734968  0.44401349    -0.24600
H1307       H  0.69891606  0.88975815  0.39192886     0.09300
H1308       H  0.67678401  0.89702235  0.41206310     0.12900
H1309       H  0.73672659  0.90592331  0.42746675     0.12900
H1310       H  0.72793796  0.91706380  0.45519234     0.12600
H1311       H  0.70597540  0.92062020  0.47664825     0.13200
H1312       H  0.66837077  0.90434266  0.44100244     0.15100
C1313       C  0.81980523  0.89654494  0.28622257    -0.04900
C1314       C  0.81133310  0.91059469  0.29293866    -0.04800
C1315       C  0.80038281  0.90871720  0.30678017    -0.23000
C1316       C  0.79766541  0.89273815  0.31409905     0.19200
C1317       C  0.80574880  0.87851768  0.30701361     0.16400
C1318       C  0.81667200  0.88050405  0.29319795    -0.18000
C1319       C  0.80315188  0.86252563  0.31410949    -0.19900
C1320       C  0.79293143  0.86059684  0.32832334    -0.12400
C1321       C  0.78499758  0.87458692  0.33582540     0.04200
C1322       C  0.78729801  0.89069882  0.32850118    -0.24600
H1323       H  0.81364676  0.92311048  0.28789005     0.09300
H1324       H  0.79431005  0.91980200  0.31196287     0.12900
H1325       H  0.82309833  0.86955081  0.28812978     0.12900
H1326       H  0.80921797  0.85149178  0.30879297     0.12600
H1327       H  0.79138078  0.84804805  0.33356535     0.13200
H1328       H  0.78125844  0.90160344  0.33410067     0.15100
C1329       C  0.86745947  0.93047779  0.20430928    -0.04900
C1330       C  0.87864796  0.92376084  0.19231397    -0.04800
C1331       C  0.88353233  0.93313211  0.17822852    -0.23000
C1332       C  0.87753364  0.94956808  0.17595394     0.19200
C1333       C  0.86574868  0.95631325  0.18751829     0.16400
C1334       C  0.86054121  0.94658944  0.20154948    -0.18000
C1335       C  0.86011432  0.97295935  0.18527040    -0.19900
C1336       C  0.86679320  0.98306289  0.17230367    -0.12400
C1337       C  0.87902074  0.97661979  0.16118993     0.04200
C1338       C  0.88386741  0.95963429  0.16279710    -0.24600
H1339       H  0.88401781  0.91132939  0.19407641     0.09300
H1340       H  0.89251839  0.92774804  0.16945363     0.12900
H1341       H  0.85198244  0.95191697  0.21077897     0.12900
H1342       H  0.85107877  0.97839271  0.19395329     0.12600
H1343       H  0.86290858  0.99612946  0.17141720     0.13200
H1344       H  0.89337612  0.95450009  0.15442480     0.15100
C1345       C  0.91587309  0.04795629  0.17349602    -0.04900
C1346       C  0.91536478  0.04225603  0.19029606    -0.04800
C1347       C  0.91040924  0.05306121  0.20334018    -0.23000
C1348       C  0.90583696  0.06978374  0.19983480     0.19200
C1349       C  0.90745598  0.07604738  0.18320764     0.16400
C1350       C  0.91257035  0.06511733  0.17014325    -0.18000
C1351       C  0.90287619  0.09281789  0.17977804    -0.19900
C1352       C  0.89553792  0.10282603  0.19238005    -0.12400
C1353       C  0.89276341  0.09627122  0.20864452     0.04200
C1354       C  0.89866501  0.07996762  0.21245098    -0.24600
H1355       H  0.91784307  0.02914305  0.19325469     0.09300
H1356       H  0.90937057  0.04809196  0.21604712     0.12900
H1357       H  0.91295809  0.06970258  0.15725675     0.12900
H1358       H  0.90419130  0.09791837  0.16715076     0.12600
H1359       H  0.89119620  0.11535934  0.18913637     0.13200
H1360       H  0.89671679  0.07477906  0.22497357     0.15100
C1361       C  0.87934521  0.95074598  0.45918840    -0.04900
C1362       C  0.87028414  0.96597234  0.45921698    -0.04800
C1363       C  0.87266599  0.97794394  0.44629191    -0.23000
C1364       C  0.88410575  0.97487633  0.43306134     0.19200
C1365       C  0.89329864  0.95963068  0.43306381     0.16400
C1366       C  0.89090612  0.94779457  0.44604050    -0.18000
C1367       C  0.90474031  0.95634064  0.42002897    -0.19900
C1368       C  0.90724824  0.96807944  0.40714888    -0.12400
C1369       C  0.89830057  0.98336582  0.40685323     0.04200
C1370       C  0.88657036  0.98666699  0.41984235    -0.24600
H1371       H  0.86126414  0.96855924  0.46914378     0.09300
H1372       H  0.86548789  0.98954359  0.44659191     0.12900
H1373       H  0.89796716  0.93610843  0.44574461     0.12900
H1374       H  0.91182112  0.94467042  0.41980805     0.12600
H1375       H  0.91621142  0.96509863  0.39727305     0.13200
H1376       H  0.87958433  0.99839326  0.41977413     0.15100
C1377       C  0.89228048  0.92826814  0.28924586    -0.04900
C1378       C  0.88972299  0.92324074  0.30605803    -0.04800
C1379       C  0.89452204  0.93379429  0.31937688    -0.23000
C1380       C  0.90221745  0.94944594  0.31610092     0.19200
C1381       C  0.90585760  0.95414116  0.29926417     0.16400
C1382       C  0.90069735  0.94360003  0.28592278    -0.18000
C1383       C  0.91391877  0.96964363  0.29606260    -0.19900
C1384       C  0.91745765  0.98080846  0.30931958    -0.12400
C1385       C  0.91278748  0.97674635  0.32594053     0.04200
C1386       C  0.90561906  0.96080263  0.32929960    -0.24600
H1387       H  0.88309964  0.91158304  0.30889188     0.09300
H1388       H  0.89172517  0.92995372  0.33221401     0.12900
H1389       H  0.90269855  0.94757159  0.27297318     0.12900
H1390       H  0.91695789  0.97338621  0.28325506     0.12600
H1391       H  0.92293106  0.99303451  0.30644101     0.13200
H1392       H  0.90206383  0.95751300  0.34211520     0.15100
C1393       C  0.87674866  0.05105188  0.33554973    -0.04900
C1394       C  0.87662936  0.06827348  0.33988003    -0.04800
C1395       C  0.87071401  0.08037397  0.32849632    -0.23000
C1396       C  0.86474029  0.07548197  0.31256895     0.19200
C1397       C  0.86391320  0.05813393  0.30841152     0.16400
C1398       C  0.86991333  0.04603472  0.31991744    -0.18000
C1399       C  0.85780088  0.05325971  0.29251584    -0.19900
C1400       C  0.85334710  0.06547048  0.28055750    -0.12400
C1401       C  0.85502883  0.08276938  0.28422702     0.04200
C1402       C  0.86031181  0.08766770  0.30046842    -0.24600
H1403       H  0.88187955  0.07249317  0.35176260     0.09300
H1404       H  0.87135068  0.09361487  0.33193556     0.12900
H1405       H  0.86992576  0.03279423  0.31639787     0.12900
H1406       H  0.85699537  0.04001498  0.28912397     0.12600
H1407       H  0.84941105  0.06137050  0.26813083     0.13200
H1408       H  0.86163162  0.10097589  0.30346824     0.15100
C1409       C  0.64036949  0.95250412  0.53504108    -0.04900
C1410       C  0.65393688  0.96230567  0.54096677    -0.04800
C1411       C  0.65177643  0.97357726  0.55450107    -0.23000
C1412       C  0.63599803  0.97525216  0.56238015     0.19200
C1413       C  0.62224166  0.96574266  0.55617210     0.16400
C1414       C  0.62449471  0.95453386  0.54261713    -0.18000
C1415       C  0.60644990  0.96727675  0.56383766    -0.19900
C1416       C  0.60426801  0.97790271  0.57770082    -0.12400
C1417       C  0.61781854  0.98722701  0.58436666     0.04200
C1418       C  0.63372778  0.98595795  0.57650504    -0.24600
H1419       H  0.66633538  0.96090939  0.53545226     0.09300
H1420       H  0.66250986  0.98074231  0.55899630     0.12900
H1421       H  0.61391414  0.94703845  0.53825617     0.12900
H1422       H  0.59577629  0.96008232  0.55923247     0.12600
H1423       H  0.59190485  0.97854713  0.58343423     0.13200
H1424       H  0.64430373  0.99304798  0.58147998     0.15100
C1425       C  0.69486997  0.89005445  0.71002164    -0.04900
C1426       C  0.71015519  0.89908825  0.70998485    -0.04800
C1427       C  0.72214432  0.89645618  0.69716500    -0.23000
C1428       C  0.71913645  0.88459864  0.68426649     0.19200
C1429       C  0.70392942  0.87526613  0.68449935     0.16400
C1430       C  0.69194423  0.87813317  0.69719814    -0.18000
C1431       C  0.70084000  0.86318210  0.67198636    -0.19900
C1432       C  0.71263193  0.86033598  0.65926475    -0.12400
C1433       C  0.72772782  0.86965428  0.65854032     0.04200
C1434       C  0.73092860  0.88187323  0.67113345    -0.24600
H1435       H  0.71270365  0.90839116  0.71968615     0.09300
H1436       H  0.73372610  0.90372204  0.69731237     0.12900
H1437       H  0.68026465  0.87100305  0.69708142     0.12900
H1438       H  0.68925350  0.85590894  0.67201247     0.12600
H1439       H  0.70974167  0.85095822  0.64973015     0.13200
H1440       H  0.74252120  0.88912308  0.67076155     0.15100
C1441       C  0.62487489  0.93620238  0.71658705    -0.04900
C1442       C  0.62502379  0.95309974  0.72212149    -0.04800
C1443       C  0.61941212  0.96611510  0.71168136    -0.23000
C1444       C  0.61377442  0.96258396  0.69531701     0.19200
C1445       C  0.61307616  0.94561845  0.68969971     0.16400
C1446       C  0.61835455  0.93247788  0.70048596    -0.18000
C1447       C  0.60797522  0.94222454  0.67308231    -0.19900
C1448       C  0.60448836  0.95550531  0.66193436    -0.12400
C1449       C  0.60549849  0.97241279  0.66731832     0.04200
C1450       C  0.60965608  0.97581483  0.68422102    -0.24600
H1451       H  0.62994566  0.95634516  0.73444415     0.09300
H1452       H  0.62006863  0.97902646  0.71620393     0.12900
H1453       H  0.61832966  0.91953948  0.69598696     0.12900
H1454       H  0.60735356  0.92933626  0.66849640     0.12600
H1455       H  0.60136058  0.95257818  0.64895883     0.13200
H1456       H  0.61075590  0.98881110  0.68843687     0.15100
C1457       C  0.64321858  0.97242837  0.83677163    -0.04900
C1458       C  0.65390378  0.97923279  0.82430346    -0.04800
C1459       C  0.66005403  0.96905068  0.81122263    -0.23000
C1460       C  0.65543141  0.95193983  0.81026161     0.19200
C1461       C  0.64554534  0.94478298  0.82332211     0.16400
C1462       C  0.63979921  0.95497654  0.83662739    -0.18000
C1463       C  0.64054115  0.92782146  0.82226353    -0.19900
C1464       C  0.64433144  0.91834031  0.80790291    -0.12400
C1465       C  0.65349867  0.92550225  0.79447757     0.04200
C1466       C  0.65959804  0.94214832  0.79600775    -0.24600
H1467       H  0.65669607  0.99263969  0.82408169     0.09300
H1468       H  0.66767079  0.97476855  0.80138331     0.12900
H1469       H  0.63151677  0.94955953  0.84610592     0.12900
H1470       H  0.63300814  0.92211480  0.83217952     0.12600
H1471       H  0.63959380  0.90551144  0.80704640     0.13200
H1472       H  0.66654505  0.94782570  0.78565303     0.15100
C1473       C  0.66115889  0.08078916  0.71047015    -0.04900
C1474       C  0.66338402  0.06355328  0.71399507    -0.04800
C1475       C  0.65963330  0.05130275  0.70180657    -0.23000
C1476       C  0.65375841  0.05610995  0.68582919     0.19200
C1477       C  0.65247664  0.07346026  0.68183371     0.16400
C1478       C  0.65611277  0.08567592  0.69419223    -0.18000
C1479       C  0.64679935  0.07828288  0.66580707    -0.19900
C1480       C  0.64138918  0.06607828  0.65423436    -0.12400
C1481       C  0.64151954  0.04883422  0.65848348     0.04200
C1482       C  0.64832059  0.04390834  0.67411561    -0.24600
H1483       H  0.66718574  0.05950550  0.72646704     0.09300
H1484       H  0.66078424  0.03806360  0.70506964     0.12900
H1485       H  0.65444127  0.09896217  0.69133848     0.12900
H1486       H  0.64588658  0.09152531  0.66247210     0.12600
H1487       H  0.63619822  0.07022230  0.64231828     0.13200
H1488       H  0.64851289  0.03065245  0.67755536     0.15100
C1489       C  0.62471740  0.09059244  0.78483709    -0.04900
C1490       C  0.62108702  0.09710012  0.80093250    -0.04800
C1491       C  0.61431399  0.08665163  0.81350429    -0.23000
C1492       C  0.61109748  0.06951544  0.81018358     0.19200
C1493       C  0.61358069  0.06316211  0.79369750     0.16400
C1494       C  0.62024917  0.07376531  0.78110954    -0.18000
C1495       C  0.61035816  0.04604428  0.79035192    -0.19900
C1496       C  0.60585549  0.03506488  0.80345377    -0.12400
C1497       C  0.60442974  0.04101538  0.82011539     0.04200
C1498       C  0.60643883  0.05842435  0.82326441    -0.24600
H1499       H  0.62439843  0.11000343  0.80410811     0.09300
H1500       H  0.61234806  0.09177849  0.82603596     0.12900
H1501       H  0.62289888  0.06862287  0.76869960     0.12900
H1502       H  0.61207352  0.04098564  0.77775316     0.12600
H1503       H  0.60436733  0.02174093  0.80067682     0.13200
H1504       H  0.60532296  0.06319146  0.83604732     0.15100
C1505       C  0.29394823  0.65280475  0.57813069    -0.04900
C1506       C  0.30504230  0.66568122  0.57292448    -0.04800
C1507       C  0.31836126  0.66210606  0.56181219    -0.23000
C1508       C  0.32066914  0.64563253  0.55559363     0.19200
C1509       C  0.30961501  0.63265278  0.56099290     0.16400
C1510       C  0.29654067  0.63626994  0.57226514    -0.18000
C1511       C  0.31151947  0.61624497  0.55477995    -0.19900
C1512       C  0.32402072  0.61270916  0.54300881    -0.12400
C1513       C  0.33507929  0.62541837  0.53730190     0.04200
C1514       C  0.33353478  0.64189646  0.54385554    -0.24600
H1515       H  0.30333575  0.67851706  0.57732319     0.09300
H1516       H  0.32667227  0.67226051  0.55787799     0.12900
H1517       H  0.28810128  0.62618315  0.57615502     0.12900
H1518       H  0.30316193  0.60616308  0.55883056     0.12600
H1519       H  0.32500936  0.59988647  0.53832923     0.13200
H1520       H  0.34197162  0.65179401  0.53953322     0.15100
C1521       C  0.17305519  0.63337478  0.52483732    -0.04900
C1522       C  0.17862029  0.65028337  0.52488739    -0.04800
C1523       C  0.18989518  0.65608752  0.53705910    -0.23000
C1524       C  0.19572438  0.64516584  0.54962078     0.19200
C1525       C  0.19012055  0.62818663  0.54994581     0.16400
C1526       C  0.17891102  0.62232634  0.53743369    -0.18000
C1527       C  0.19583978  0.61743822  0.56280546    -0.19900
C1528       C  0.20706531  0.62342053  0.57509732    -0.12400
C1529       C  0.21289260  0.64020358  0.57465081     0.04200
C1530       C  0.20708814  0.65099773  0.56184447    -0.24600
H1531       H  0.17437007  0.65906400  0.51533871     0.09300
H1532       H  0.19403734  0.66915136  0.53665152     0.12900
H1533       H  0.17462667  0.60930779  0.53760587     0.12900
H1534       H  0.19166024  0.60440041  0.56334041     0.12600
H1535       H  0.21137165  0.61485822  0.58480786     0.13200
H1536       H  0.21138878  0.66401605  0.56138681     0.15100
C1537       C  0.22548086  0.65548157  0.41490859    -0.04900
C1538       C  0.22794746  0.64016354  0.42352929    -0.04800
C1539       C  0.21560689  0.63358519  0.43415138    -0.23000
C1540       C  0.20040843  0.64211465  0.43636580     0.19200
C1541       C  0.19767267  0.65766931  0.42807651     0.16400
C1542       C  0.21034658  0.66438846  0.41742201    -0.18000
C1543       C  0.18223562  0.66598493  0.43049258    -0.19900
C1544       C  0.16974463  0.65893187  0.44099137    -0.12400
C1545       C  0.17249364  0.64344321  0.44919641     0.04200
C1546       C  0.18791078  0.63517314  0.44673946    -0.24600
H1547       H  0.23948037  0.63308986  0.42193633     0.09300
H1548       H  0.21789439  0.62168308  0.44049337     0.12900
H1549       H  0.20826179  0.67615440  0.41077566     0.12900
H1550       H  0.17982337  0.67791191  0.42427048     0.12600
H1551       H  0.15799569  0.66558877  0.44272232     0.13200
H1552       H  0.19029856  0.62323687  0.45298992     0.15100
C1553       C  0.30468241  0.64946096  0.41198006    -0.04900
C1554       C  0.31330420  0.66183203  0.42137998    -0.04800
C1555       C  0.32501349  0.65733494  0.43361683    -0.23000
C1556       C  0.32826285  0.64030713  0.43696594     0.19200
C1557       C  0.32003527  0.62761565  0.42746695     0.16400
C1558       C  0.30835331  0.63226869  0.41486285    -0.18000
C1559       C  0.32334265  0.61056177  0.43114046    -0.19900
C1560       C  0.33416394  0.60620096  0.44443859    -0.12400
C1561       C  0.34195496  0.61880394  0.45424605     0.04200
C1562       C  0.33921902  0.63584771  0.45007449    -0.24600
H1563       H  0.31085547  0.67513654  0.41939471     0.09300
H1564       H  0.33125347  0.66721780  0.44074847     0.12900
H1565       H  0.30175041  0.62259193  0.40778240     0.12900
H1566       H  0.31725890  0.60059860  0.42400063     0.12600
H1567       H  0.33612304  0.59297799  0.44729711     0.13200
H1568       H  0.34520635  0.64574766  0.45740859     0.15100
C1569       C  0.19358338  0.64532358  0.28665738    -0.04900
C1570       C  0.18826128  0.65900818  0.29666938    -0.04800
C1571       C  0.19795120  0.66471476  0.31027395    -0.23000
C1572       C  0.21312175  0.65672730  0.31435458     0.19200
C1573       C  0.21870306  0.64303072  0.30436879     0.16400
C1574       C  0.20898293  0.63749424  0.29051989    -0.18000
C1575       C  0.23377221  0.63491273  0.30860933    -0.19900
C1576       C  0.24305078  0.64007040  0.32273536    -0.12400
C1577       C  0.23757036  0.65355005  0.33289022     0.04200
C1578       C  0.22262839  0.66198338  0.32843294    -0.24600
H1579       H  0.17648026  0.66529009  0.29403796     0.09300
H1580       H  0.19343765  0.67523116  0.31776182     0.12900
H1581       H  0.21319921  0.62685425  0.28302787     0.12900
H1582       H  0.23828665  0.62440235  0.30112153     0.12600
H1583       H  0.25450334  0.63339543  0.32578711     0.13200
H1584       H  0.21819541  0.67240437  0.33611051     0.15100
C1585       C  0.16117272  0.59069302  0.20493620    -0.04900
C1586       C  0.16748814  0.57431026  0.20713968    -0.04800
C1587       C  0.16419393  0.56168257  0.19516980    -0.23000
C1588       C  0.15477040  0.56533144  0.18066294     0.19200
C1589       C  0.14947646  0.58210511  0.17774330     0.16400
C1590       C  0.15256120  0.59462509  0.18996651    -0.18000
C1591       C  0.14044016  0.58588392  0.16305706    -0.19900
C1592       C  0.13569529  0.57299847  0.15194388    -0.12400
C1593       C  0.13972276  0.55606943  0.15539154     0.04200
C1594       C  0.14979065  0.55239161  0.16950762    -0.24600
H1595       H  0.17407634  0.57101667  0.21861431     0.09300
H1596       H  0.16849687  0.54893777  0.19755758     0.12900
H1597       H  0.14772560  0.60728308  0.18814543     0.12900
H1598       H  0.13644943  0.59870409  0.16051077     0.12600
H1599       H  0.12793064  0.57617984  0.14120141     0.13200
H1600       H  0.15302428  0.53939349  0.17227285     0.15100
C1601       C  0.10753566  0.47579877  0.16760546    -0.04900
C1602       C  0.10422543  0.47902249  0.18473505    -0.04800
C1603       C  0.10813294  0.46700798  0.19706811    -0.23000
C1604       C  0.11530518  0.45149059  0.19247407     0.19200
C1605       C  0.11774832  0.44771872  0.17520418     0.16400
C1606       C  0.11387983  0.45988991  0.16289621    -0.18000
C1607       C  0.12476239  0.43214660  0.17058781    -0.19900
C1608       C  0.13024507  0.42084954  0.18296050    -0.12400
C1609       C  0.12885903  0.42491363  0.20018217     0.04200
C1610       C  0.12083457  0.44005591  0.20485008    -0.24600
H1611       H  0.09939455  0.49117601  0.18868431     0.09300
H1612       H  0.10607202  0.47008810  0.21023845     0.12900
H1613       H  0.11641229  0.45722298  0.14970856     0.12900
H1614       H  0.12660868  0.42897898  0.15740669     0.12600
H1615       H  0.13639742  0.40931718  0.17900902     0.13200
H1616       H  0.11967341  0.44335529  0.21808391     0.15100
C1617       C  0.12208058  0.53345761  0.40404121    -0.04900
C1618       C  0.13618450  0.53031944  0.41422235    -0.04800
C1619       C  0.13987378  0.54073607  0.42806684    -0.23000
C1620       C  0.12961867  0.55461899  0.43194201     0.19200
C1621       C  0.11541410  0.55789434  0.42177621     0.16400
C1622       C  0.11170433  0.54729517  0.40799749    -0.18000
C1623       C  0.10527094  0.57187621  0.42540315    -0.19900
C1624       C  0.10933167  0.58272701  0.43872015    -0.12400
C1625       C  0.12353161  0.57979596  0.44885767     0.04200
C1626       C  0.13350218  0.56548817  0.44554149    -0.24600
H1627       H  0.14440949  0.51979896  0.41146381     0.09300
H1628       H  0.15085250  0.53802093  0.43564669     0.12900
H1629       H  0.10084144  0.54997574  0.40021960     0.12900
H1630       H  0.09433073  0.57459505  0.41775844     0.12600
H1631       H  0.10141881  0.59361290  0.44095015     0.13200
H1632       H  0.14455914  0.56313985  0.45314199     0.15100
C1633       C  0.12375986  0.54403960  0.32495636    -0.04900
C1634       C  0.14119996  0.54557863  0.32224488    -0.04800
C1635       C  0.14769173  0.55740916  0.31103063    -0.23000
C1636       C  0.13693523  0.56818288  0.30229899     0.19200
C1637       C  0.11936045  0.56716109  0.30493491     0.16400
C1638       C  0.11278237  0.55491086  0.31621539    -0.18000
C1639       C  0.10885650  0.57842426  0.29619304    -0.19900
C1640       C  0.11573629  0.59036636  0.28491998    -0.12400
C1641       C  0.13319620  0.59109591  0.28208634     0.04200
C1642       C  0.14364193  0.57994262  0.29093204    -0.24600
H1643       H  0.14998618  0.53739350  0.32867133     0.09300
H1644       H  0.16119154  0.55809535  0.30916521     0.12900
H1645       H  0.09932672  0.55391530  0.31823918     0.12900
H1646       H  0.09535652  0.57798431  0.29804544     0.12600
H1647       H  0.10741907  0.59886103  0.27828271     0.13200
H1648       H  0.15715547  0.58043746  0.28904430     0.15100
C1649       C  0.16218386  0.43540551  0.27749934    -0.04900
C1650       C  0.16065654  0.45243192  0.27275218    -0.04800
C1651       C  0.15514274  0.46453542  0.28432169    -0.23000
C1652       C  0.15131548  0.45991170  0.30097410     0.19200
C1653       C  0.15403641  0.44310731  0.30631815     0.16400
C1654       C  0.15932851  0.43088564  0.29449147    -0.18000
C1655       C  0.15068354  0.43873931  0.32320529    -0.19900
C1656       C  0.14391998  0.45068122  0.33441143    -0.12400
C1657       C  0.14011473  0.46705537  0.32881930     0.04200
C1658       C  0.14420063  0.47167273  0.31216505    -0.24600
H1659       H  0.16271362  0.45623924  0.25977513     0.09300
H1660       H  0.15331947  0.47741152  0.28007839     0.12900
H1661       H  0.16054397  0.41780109  0.29832360     0.12900
H1662       H  0.15285807  0.42598263  0.32762006     0.12600
H1663       H  0.14089035  0.44688642  0.34720089     0.13200
H1664       H  0.14148499  0.48436108  0.30781242     0.15100
C1665       C  0.02699505  0.42167063  0.37966100    -0.04900
C1666       C  0.02512142  0.42870297  0.36346872    -0.04800
C1667       C  0.03490297  0.44265142  0.35840055    -0.23000
C1668       C  0.04684960  0.44977086  0.36938415     0.19200
C1669       C  0.04857811  0.44293647  0.38577454     0.16400
C1670       C  0.03863655  0.42909064  0.39080301    -0.18000
C1671       C  0.06055872  0.44974814  0.39678804    -0.19900
C1672       C  0.07118688  0.46277727  0.39146600    -0.12400
C1673       C  0.07000650  0.46948120  0.37507339     0.04200
C1674       C  0.05747047  0.46318679  0.36416386    -0.24600
H1675       H  0.01625575  0.42326769  0.35462634     0.09300
H1676       H  0.03334146  0.44766208  0.34578109     0.12900
H1677       H  0.04028190  0.42383623  0.40332358     0.12900
H1678       H  0.06201697  0.44470179  0.40941209     0.12600
H1679       H  0.08064718  0.46740723  0.40015006     0.13200
H1680       H  0.05651339  0.46814054  0.35145278     0.15100
C1681       C  0.88647862  0.21293203  0.30952954    -0.04900
C1682       C  0.90049985  0.20614181  0.30112730    -0.04800
C1683       C  0.89855127  0.19265238  0.28976809    -0.23000
C1684       C  0.88251320  0.18587779  0.28646241     0.19200
C1685       C  0.86832626  0.19301409  0.29450664     0.16400
C1686       C  0.87040976  0.20636190  0.30599944    -0.18000
C1687       C  0.85226631  0.18649248  0.29119305    -0.19900
C1688       C  0.85024408  0.17277573  0.28030206    -0.12400
C1689       C  0.86421963  0.16523594  0.27246336     0.04200
C1690       C  0.88038317  0.17198895  0.27548176    -0.24600
H1691       H  0.91301868  0.21087700  0.30378594     0.09300
H1692       H  0.90960024  0.18738593  0.28374040     0.12900
H1693       H  0.85949930  0.21151659  0.31239686     0.12900
H1694       H  0.84125489  0.19187771  0.29719175     0.12600
H1695       H  0.83766635  0.16791719  0.27818487     0.13200
H1696       H  0.89127419  0.16630137  0.26954001     0.15100
C1697       C  0.92531011  0.29016385  0.36437718    -0.04900
C1698       C  0.92916676  0.29125622  0.38166055    -0.04800
C1699       C  0.94027999  0.30344644  0.38768278    -0.23000
C1700       C  0.94770024  0.31503926  0.37660661     0.19200
C1701       C  0.94391263  0.31438567  0.35919238     0.16400
C1702       C  0.93281008  0.30177478  0.35309263    -0.18000
C1703       C  0.95129402  0.32641073  0.34834508    -0.19900
C1704       C  0.96229179  0.33883120  0.35472251    -0.12400
C1705       C  0.96624357  0.33929428  0.37200772     0.04200
C1706       C  0.95883896  0.32729379  0.38280890    -0.24600
H1707       H  0.92371015  0.28246889  0.39063914     0.09300
H1708       H  0.94304635  0.30381544  0.40106686     0.12900
H1709       H  0.92990270  0.30111097  0.33975310     0.12900
H1710       H  0.94855340  0.32622675  0.33496074     0.12600
H1711       H  0.96785131  0.34792714  0.34613006     0.13200
H1712       H  0.96165251  0.32753622  0.39619314     0.15100
C1713       C  0.99040885  0.10104966  0.38183584    -0.04900
C1714       C  0.99008602  0.09589792  0.36484695    -0.04800
C1715       C  0.98079667  0.08163424  0.35990149    -0.23000
C1716       C  0.97148686  0.07234079  0.37182625     0.19200
C1717       C  0.97211558  0.07716334  0.38900415     0.16400
C1718       C  0.98167782  0.09131751  0.39390364    -0.18000
C1719       C  0.96263809  0.06815242  0.40094517    -0.19900
C1720       C  0.95200598  0.05502105  0.39585359    -0.12400
C1721       C  0.95082140  0.05037386  0.37876162     0.04200
C1722       C  0.96102041  0.05878633  0.36682584    -0.24600
H1723       H  0.99676090  0.10309671  0.35530502     0.09300
H1724       H  0.98053074  0.07815027  0.34667801     0.12900
H1725       H  0.98181885  0.09509309  0.40705903     0.12900
H1726       H  0.96300779  0.07162698  0.41417162     0.12600
H1727       H  0.94436108  0.04872069  0.40530551     0.13200
H1728       H  0.96013362  0.05541518  0.35359553     0.15100
C1729       C  0.91815497  0.21205173  0.38349737    -0.04900
C1730       C  0.91411108  0.19484568  0.38196128    -0.04800
C1731       C  0.92562201  0.18247992  0.38698444    -0.23000
C1732       C  0.94122282  0.18716768  0.39389056     0.19200
C1733       C  0.94466204  0.20443412  0.39697587     0.16400
C1734       C  0.93318686  0.21677148  0.39159593    -0.18000
C1735       C  0.95998184  0.20910999  0.40443111    -0.19900
C1736       C  0.97229119  0.19695222  0.40765458    -0.12400
C1737       C  0.96963417  0.17997282  0.40319376     0.04200
C1738       C  0.95381618  0.17505457  0.39682851    -0.24600
H1739       H  0.90263497  0.19097426  0.37568417     0.09300
H1740       H  0.92264847  0.16929475  0.38474880     0.12900
H1741       H  0.93633832  0.23005984  0.39288121     0.12900
H1742       H  0.96273646  0.22226428  0.40710054     0.12600
H1743       H  0.98435854  0.20103435  0.41253179     0.13200
H1744       H  0.95160371  0.16195463  0.39345135     0.15100
C1745       C  0.14551808  0.35274035  0.26195673    -0.04900
C1746       C  0.12955801  0.34542335  0.25947707    -0.04800
C1747       C  0.12433069  0.33147370  0.26910931    -0.23000
C1748       C  0.13490046  0.32469025  0.28153700     0.19200
C1749       C  0.15102725  0.33188711  0.28397633     0.16400
C1750       C  0.15625594  0.34570379  0.27412390    -0.18000
C1751       C  0.16155671  0.32542704  0.29652734    -0.19900
C1752       C  0.15603119  0.31227687  0.30690759    -0.12400
C1753       C  0.13994699  0.30510796  0.30485241     0.04200
C1754       C  0.12950639  0.31118689  0.29188494    -0.24600
H1755       H  0.12104757  0.35058254  0.25018149     0.09300
H1756       H  0.11191651  0.32617697  0.26703048     0.12900
H1757       H  0.16856527  0.35124922  0.27625369     0.12900
H1758       H  0.17395187  0.33079272  0.29857128     0.12600
H1759       H  0.16431480  0.30786147  0.31678293     0.13200
H1760       H  0.11700308  0.30590879  0.29030496     0.15100
C1761       C  0.04366122  0.18467103  0.36677915    -0.04900
C1762       C  0.05363997  0.17992258  0.35288687    -0.04800
C1763       C  0.06478287  0.19155159  0.34536560    -0.23000
C1764       C  0.06623525  0.20809559  0.35170023     0.19200
C1765       C  0.05571575  0.21308329  0.36523237     0.16400
C1766       C  0.04444777  0.20147489  0.37249230    -0.18000
C1767       C  0.05714111  0.22939801  0.37189133    -0.19900
C1768       C  0.06948810  0.24040673  0.36589301    -0.12400
C1769       C  0.08045882  0.23553955  0.35285886     0.04200
C1770       C  0.07845598  0.21950910  0.34535806    -0.24600
H1771       H  0.05322377  0.16707966  0.34818236     0.09300
H1772       H  0.07264678  0.18744132  0.33496848     0.12900
H1773       H  0.03675973  0.20538985  0.38311387     0.12900
H1774       H  0.04911845  0.23344348  0.38219867     0.12600
H1775       H  0.07072786  0.25272535  0.37175331     0.13200
H1776       H  0.08695709  0.21560922  0.33538413     0.15100
C1777       C  0.09479276  0.31133218  0.36894683    -0.04900
C1778       C  0.09366675  0.32667139  0.36018729    -0.04800
C1779       C  0.08201722  0.33884502  0.36501717    -0.23000
C1780       C  0.07093720  0.33566799  0.37842127     0.19200
C1781       C  0.07227281  0.32051058  0.38777096     0.16400
C1782       C  0.08445128  0.30845939  0.38311204    -0.18000
C1783       C  0.06080437  0.31737630  0.40096643    -0.19900
C1784       C  0.04773166  0.32878486  0.40431363    -0.12400
C1785       C  0.04597331  0.34346589  0.39451676     0.04200
C1786       C  0.05795706  0.34703051  0.38195011    -0.24600
H1787       H  0.10145871  0.32897548  0.34917049     0.09300
H1788       H  0.08114650  0.35041063  0.35775851     0.12900
H1789       H  0.08506329  0.29645677  0.38967062     0.12900
H1790       H  0.06158655  0.30584780  0.40829008     0.12600
H1791       H  0.03859102  0.32577193  0.41403260     0.13200
H1792       H  0.05676704  0.35838243  0.37438751     0.15100
C1793       C  0.88879580  0.60638122  0.80159637    -0.04900
C1794       C  0.88077618  0.60432841  0.81731690    -0.04800
C1795       C  0.88573742  0.59160322  0.82840149    -0.23000
C1796       C  0.89876583  0.58060294  0.82394630     0.19200
C1797       C  0.90769528  0.58317730  0.80869693     0.16400
C1798       C  0.90273613  0.59616631  0.79765064    -0.18000
C1799       C  0.92080416  0.57212037  0.80437801    -0.19900
C1800       C  0.92442940  0.55818099  0.81463399    -0.12400
C1801       C  0.91490540  0.55502560  0.82926045     0.04200
C1802       C  0.90241887  0.56658067  0.83408877    -0.24600
H1803       H  0.87004544  0.61201917  0.82069912     0.09300
H1804       H  0.87887521  0.58989557  0.84012531     0.12900
H1805       H  0.90897130  0.59754484  0.78553969     0.12900
H1806       H  0.92786508  0.57392246  0.79279462     0.12600
H1807       H  0.93412387  0.54943374  0.81071194     0.13200
H1808       H  0.89513119  0.56432702  0.84547137     0.15100
C1809       C  0.87752551  0.55433626  0.67244342    -0.04900
C1810       C  0.86722662  0.56773809  0.66721461    -0.04800
C1811       C  0.86071520  0.57924218  0.67904756    -0.23000
C1812       C  0.86436917  0.57752535  0.69632205     0.19200
C1813       C  0.87408503  0.56362958  0.70170192     0.16400
C1814       C  0.88049069  0.55216275  0.68980769    -0.18000
C1815       C  0.87784298  0.56174695  0.71884914    -0.19900
C1816       C  0.87276398  0.57392994  0.73050408    -0.12400
C1817       C  0.86369892  0.58824660  0.72534688     0.04200
C1818       C  0.85911121  0.58973885  0.70822278    -0.24600
H1819       H  0.86471048  0.56967867  0.65393337     0.09300
H1820       H  0.85322149  0.58974190  0.67463363     0.12900
H1821       H  0.88827295  0.54179692  0.69406788     0.12900
H1822       H  0.88519883  0.55111232  0.72319218     0.12600
H1823       H  0.87644440  0.57238896  0.74356491     0.13200
H1824       H  0.85220455  0.60073749  0.70404323     0.15100
C1825       C  0.86447433  0.43422251  0.78019222    -0.04900
C1826       C  0.85311859  0.43875768  0.79304060    -0.04800
C1827       C  0.85814979  0.44966162  0.80611624    -0.23000
C1828       C  0.87458396  0.45631546  0.80647668     0.19200
C1829       C  0.88592261  0.45193327  0.79341999     0.16400
C1830       C  0.88084272  0.44097226  0.78049911    -0.18000
C1831       C  0.90226435  0.45850955  0.79344719    -0.19900
C1832       C  0.90741955  0.46938270  0.80624602    -0.12400
C1833       C  0.89643001  0.47391943  0.81943646     0.04200
C1834       C  0.87994247  0.46725225  0.81954156    -0.24600
H1835       H  0.84045448  0.43365956  0.79312705     0.09300
H1836       H  0.84921673  0.45283904  0.81595697     0.12900
H1837       H  0.88973489  0.43765827  0.77064340     0.12900
H1838       H  0.91109964  0.45525590  0.78353120     0.12600
H1839       H  0.92018986  0.47420008  0.80581831     0.13200
H1840       H  0.87133332  0.47064930  0.82960361     0.15100
C1841       C  0.90193233  0.47534992  0.66686260    -0.04900
C1842       C  0.91410458  0.46967390  0.67836703    -0.04800
C1843       C  0.91071764  0.45579071  0.68894837    -0.23000
C1844       C  0.89505946  0.44745254  0.68827108     0.19200
C1845       C  0.88302819  0.45284351  0.67634293     0.16400
C1846       C  0.88659847  0.46652220  0.66569895    -0.18000
C1847       C  0.86724658  0.44498194  0.67568066    -0.19900
C1848       C  0.86301434  0.43247838  0.68730547    -0.12400
C1849       C  0.87456130  0.42727722  0.69960547     0.04200
C1850       C  0.89083644  0.43441194  0.69973819    -0.24600
H1851       H  0.92603092  0.47623628  0.67950250     0.09300
H1852       H  0.92014263  0.45189516  0.69797755     0.12900
H1853       H  0.87709632  0.47066171  0.65684382     0.12900
H1854       H  0.85791130  0.44896983  0.66658917     0.12600
H1855       H  0.85042623  0.42717008  0.68701898     0.13200
H1856       H  0.89971326  0.43064795  0.70937272     0.15100
C1857       C  0.86330895  0.35283378  0.77162867    -0.04900
C1858       C  0.85440685  0.35189780  0.78698613    -0.04800
C1859       C  0.85686545  0.33853727  0.79816337    -0.23000
C1860       C  0.86828355  0.32569633  0.79428182     0.19200
C1861       C  0.87728076  0.32625617  0.77886829     0.16400
C1862       C  0.87479589  0.33988918  0.76761266    -0.18000
C1863       C  0.88870427  0.31325027  0.77516510    -0.19900
C1864       C  0.89149466  0.30016103  0.78679852    -0.12400
C1865       C  0.88289520  0.29979115  0.80234707     0.04200
C1866       C  0.87106557  0.31251345  0.80579764    -0.24600
H1867       H  0.84554702  0.36165284  0.79050026     0.09300
H1868       H  0.84988874  0.33832270  0.80993598     0.12900
H1869       H  0.88174161  0.34041674  0.75583326     0.12900
H1870       H  0.89570841  0.31336070  0.76341505     0.12600
H1871       H  0.90072784  0.29058528  0.78382333     0.13200
H1872       H  0.86432021  0.31245468  0.81771247     0.15100
C1873       C  0.93071149  0.22298387  0.85157068    -0.04900
C1874       C  0.94155508  0.21605099  0.83936247    -0.04800
C1875       C  0.95243387  0.20273802  0.84358798    -0.23000
C1876       C  0.95265370  0.19617568  0.86009763     0.19200
C1877       C  0.94140390  0.20283571  0.87222484     0.16400
C1878       C  0.93054589  0.21600368  0.86787745    -0.18000
C1879       C  0.94151370  0.19665518  0.88876070    -0.19900
C1880       C  0.95320564  0.18455543  0.89355024    -0.12400
C1881       C  0.96484260  0.17810297  0.88187831     0.04200
C1882       C  0.96424280  0.18358194  0.86495596    -0.24600
H1883       H  0.94188076  0.22115272  0.82668512     0.09300
H1884       H  0.96090758  0.19783205  0.83405848     0.12900
H1885       H  0.92216637  0.22108853  0.87741577     0.12900
H1886       H  0.93290637  0.20158697  0.89816342     0.12600
H1887       H  0.95341092  0.18046554  0.90660085     0.13200
H1888       H  0.97330264  0.17878775  0.85591649     0.15100
C1889       C  0.09610173  0.21938341  0.87588559    -0.04900
C1890       C  0.09825169  0.21341952  0.89246494    -0.04800
C1891       C  0.08602986  0.20286941  0.89997991    -0.23000
C1892       C  0.07152983  0.19802655  0.89098642     0.19200
C1893       C  0.06947081  0.20396749  0.87430020     0.16400
C1894       C  0.08159529  0.21456040  0.86699109    -0.18000
C1895       C  0.05533949  0.19917726  0.86498688    -0.19900
C1896       C  0.04334106  0.18842706  0.87198406    -0.12400
C1897       C  0.04500584  0.18230524  0.88855222     0.04200
C1898       C  0.05912517  0.18728520  0.89815152    -0.24600
H1899       H  0.10929178  0.21698444  0.89962666     0.09300
H1900       H  0.08794228  0.19846717  0.91277338     0.12900
H1901       H  0.07971774  0.21897863  0.85418238     0.12900
H1902       H  0.05360876  0.20364865  0.85218167     0.12600
H1903       H  0.03261052  0.18492272  0.86432462     0.13200
H1904       H  0.06061157  0.18257451  0.91089877     0.15100
C1905       C  0.95896510  0.47321790  0.86966650    -0.04900
C1906       C  0.97492545  0.47392701  0.86198896    -0.04800
C1907       C  0.98672231  0.46110089  0.86481625    -0.23000
C1908       C  0.98273747  0.44737848  0.87537621     0.19200
C1909       C  0.96688207  0.44692867  0.88350440     0.16400
C1910       C  0.95519596  0.45978008  0.88063013    -0.18000
C1911       C  0.96275996  0.43345296  0.89417310    -0.19900
C1912       C  0.97411134  0.42034908  0.89662911    -0.12400
C1913       C  0.98980997  0.42033324  0.88839858     0.04200
C1914       C  0.99413092  0.43398562  0.87780358    -0.24600
H1915       H  0.97813320  0.48416771  0.85349010     0.09300
H1916       H  0.99883294  0.46177181  0.85853574     0.12900
H1917       H  0.94297668  0.45910888  0.88672104     0.12900
H1918       H  0.95066502  0.43295149  0.90050930     0.12600
H1919       H  0.97042809  0.41000648  0.90481453     0.13200
H1920       H  0.00623287  0.43415537  0.87146514     0.15100
C1921       C  0.97796078  0.34134647  0.89087517    -0.04900
C1922       C  0.97165512  0.33065734  0.90361085    -0.04800
C1923       C  0.95817498  0.31955625  0.90030739    -0.23000
C1924       C  0.95078256  0.31892437  0.88419250     0.19200
C1925       C  0.95689338  0.32992207  0.87149247     0.16400
C1926       C  0.97026423  0.34101275  0.87491965    -0.18000
C1927       C  0.94986330  0.32940195  0.85533797    -0.19900
C1928       C  0.93737408  0.31762666  0.85150044    -0.12400
C1929       C  0.93136638  0.30624281  0.86374820     0.04200
C1930       C  0.93781184  0.30722291  0.88030641    -0.24600
H1931       H  0.97729583  0.33070357  0.91603433     0.09300
H1932       H  0.95372379  0.31128033  0.91026738     0.12900
H1933       H  0.97486582  0.34924021  0.86496707     0.12900
H1934       H  0.95435456  0.33780852  0.84549508     0.12600
H1935       H  0.93256417  0.31721279  0.83872417     0.13200
H1936       H  0.93337306  0.29842523  0.88982329     0.15100
C1937       C  0.05751265  0.34468300  0.87050175    -0.04900
C1938       C  0.05774824  0.34150680  0.85304117    -0.04800
C1939       C  0.06831561  0.32894716  0.84631488    -0.23000
C1940       C  0.07882693  0.31946669  0.85696174     0.19200
C1941       C  0.07898909  0.32317465  0.87441777     0.16400
C1942       C  0.06847535  0.33568147  0.88097923    -0.18000
C1943       C  0.08933994  0.31403680  0.88526056    -0.19900
C1944       C  0.09925184  0.30103248  0.87902969    -0.12400
C1945       C  0.09911709  0.29678138  0.86177814     0.04200
C1946       C  0.08894467  0.30619903  0.85067827    -0.24600
H1947       H  0.04935275  0.34826817  0.84472150     0.09300
H1948       H  0.06800776  0.32641579  0.83288117     0.12900
H1949       H  0.06853599  0.33812904  0.89445385     0.12900
H1950       H  0.08960873  0.31679042  0.89866272     0.12600
H1951       H  0.10693746  0.29412859  0.88790937     0.13200
H1952       H  0.08874407  0.30310473  0.83735606     0.15100
C1953       C  0.17653599  0.28285859  0.85359261    -0.04900
C1954       C  0.18022295  0.29459605  0.84074445    -0.04800
C1955       C  0.19357450  0.30599079  0.84236254    -0.23000
C1956       C  0.20357638  0.30592706  0.85687892     0.19200
C1957       C  0.20039737  0.29392805  0.86972073     0.16400
C1958       C  0.18689381  0.28242628  0.86799529    -0.18000
C1959       C  0.21052993  0.29397474  0.88422449    -0.19900
C1960       C  0.22325905  0.30614573  0.88622377    -0.12400
C1961       C  0.22609670  0.31846566  0.87374742     0.04200
C1962       C  0.21638449  0.31800994  0.85893661    -0.24600
H1963       H  0.17253050  0.29523426  0.82950521     0.09300
H1964       H  0.19587516  0.31507537  0.83237453     0.12900
H1965       H  0.18421287  0.27346982  0.87800109     0.12900
H1966       H  0.20835591  0.28485365  0.89419628     0.12600
H1967       H  0.23051654  0.30624888  0.89776919     0.13200
H1968       H  0.21841554  0.32742117  0.84918866     0.15100
C1969       C  0.34300589  0.37641481  0.96078226    -0.04900
C1970       C  0.32800121  0.37104314  0.96861527    -0.04800
C1971       C  0.31446288  0.36519380  0.95897822    -0.23000
C1972       C  0.31564857  0.36472367  0.94132255     0.19200
C1973       C  0.33098625  0.36927148  0.93340656     0.16400
C1974       C  0.34460172  0.37491353  0.94318325    -0.18000
C1975       C  0.33216287  0.36901179  0.91576919    -0.19900
C1976       C  0.31803490  0.36522838  0.90602207    -0.12400
C1977       C  0.30248932  0.36146020  0.91370651     0.04200
C1978       C  0.30153232  0.36066888  0.93142256    -0.24600
H1979       H  0.32642189  0.37211970  0.98215803     0.09300
H1980       H  0.30284295  0.36171080  0.96529091     0.12900
H1981       H  0.35607908  0.37906508  0.93699285     0.12900
H1982       H  0.34383181  0.37238940  0.90948883     0.12600
H1983       H  0.31914057  0.36587306  0.89240901     0.13200
H1984       H  0.28961104  0.35784990  0.93750224     0.15100
C1985       C  0.10268677  0.39770501  0.97882391    -0.04900
C1986       C  0.09429107  0.38230066  0.98177144    -0.04800
C1987       C  0.08004125  0.37779608  0.97235819    -0.23000
C1988       C  0.07399999  0.38851515  0.95964403     0.19200
C1989       C  0.08214307  0.40418765  0.95680996     0.16400
C1990       C  0.09627572  0.40873976  0.96649116    -0.18000
C1991       C  0.07635337  0.41483048  0.94396175    -0.19900
C1992       C  0.06308926  0.40973189  0.93357016    -0.12400
C1993       C  0.05511802  0.39399447  0.93592121     0.04200
C1994       C  0.06037868  0.38359861  0.94932169    -0.24600
H1995       H  0.09888267  0.37360402  0.99122690     0.09300
H1996       H  0.07398069  0.36574267  0.97476668     0.12900
H1997       H  0.10259751  0.42065941  0.96403347     0.12900
H1998       H  0.08239749  0.42691144  0.94162686     0.12600
H1999       H  0.05927497  0.41801440  0.92340893     0.13200
H2000       H  0.05443704  0.37138712  0.95120323     0.15100
C2001       C  0.11749834  0.49045067  0.08447283    -0.04900
C2002       C  0.10401041  0.48138952  0.07735139    -0.04800
C2003       C  0.10651114  0.47070167  0.06357602    -0.23000
C2004       C  0.12258370  0.46878041  0.05659317     0.19200
C2005       C  0.13622105  0.47819746  0.06318102     0.16400
C2006       C  0.13359500  0.48904484  0.07708239    -0.18000
C2007       C  0.15228754  0.47616967  0.05603392    -0.19900
C2008       C  0.15489096  0.46447709  0.04297046    -0.12400
C2009       C  0.14147962  0.45462047  0.03681310     0.04200
C2010       C  0.12528020  0.45715775  0.04348572    -0.24600
H2011       H  0.09148292  0.48226188  0.08268069     0.09300
H2012       H  0.09590852  0.46363957  0.05861974     0.12900
H2013       H  0.14410698  0.49597419  0.08240547     0.12900
H2014       H  0.16291326  0.48330332  0.06082763     0.12600
H2015       H  0.16750295  0.46273533  0.03808679     0.13200
H2016       H  0.11480521  0.44968615  0.03883895     0.15100
C2017       C  0.21875803  0.39211549  0.91071596    -0.04900
C2018       C  0.20175119  0.38848209  0.90737294    -0.04800
C2019       C  0.18916620  0.39304575  0.91885370    -0.23000
C2020       C  0.19332529  0.40138224  0.93390425     0.19200
C2021       C  0.21024787  0.40595137  0.93699776     0.16400
C2022       C  0.22285675  0.40129410  0.92538973    -0.18000
C2023       C  0.21434158  0.41444560  0.95200773    -0.19900
C2024       C  0.20194163  0.41765422  0.96417894    -0.12400
C2025       C  0.18526247  0.41231496  0.96161655     0.04200
C2026       C  0.18097002  0.40455963  0.94622285    -0.24600
H2027       H  0.19822494  0.38138479  0.89622946     0.09300
H2028       H  0.17624335  0.38954154  0.91622009     0.12900
H2029       H  0.23590765  0.40417469  0.92813955     0.12900
H2030       H  0.22722556  0.41813620  0.95457130     0.12600
H2031       H  0.20556648  0.42358505  0.97595024     0.13200
H2032       H  0.16812090  0.40045579  0.94407683     0.15100
C2033       C  0.20526559  0.39144767  0.20250069    -0.04900
C2034       C  0.21435353  0.40553995  0.19654913    -0.04800
C2035       C  0.22594490  0.40390816  0.18328044    -0.23000
C2036       C  0.22875614  0.38812147  0.17571479     0.19200
C2037       C  0.22008479  0.37377649  0.18196241     0.16400
C2038       C  0.20842729  0.37551966  0.19526068    -0.18000
C2039       C  0.22291238  0.35796765  0.17453489    -0.19900
C2040       C  0.23389438  0.35641042  0.16081441    -0.12400
C2041       C  0.24231973  0.37060886  0.15414108     0.04200
C2042       C  0.23981149  0.38646777  0.16183155    -0.24600
H2043       H  0.21211150  0.41796505  0.20180400     0.09300
H2044       H  0.23248231  0.41506211  0.17873435     0.12900
H2045       H  0.20152044  0.36453130  0.19969179     0.12900
H2046       H  0.21643825  0.34681392  0.17918245     0.12600
H2047       H  0.23557117  0.34403734  0.15522741     0.13200
H2048       H  0.24620918  0.39752825  0.15686448     0.15100
C2049       C  0.22969531  0.36106645  0.07290421    -0.04900
C2050       C  0.23223302  0.35639916  0.05598662    -0.04800
C2051       C  0.21981531  0.35950892  0.04387450    -0.23000
C2052       C  0.20457799  0.36715908  0.04853372     0.19200
C2053       C  0.20153097  0.37093219  0.06570521     0.16400
C2054       C  0.21411360  0.36793342  0.07774206    -0.18000
C2055       C  0.18624088  0.37834961  0.07044630    -0.19900
C2056       C  0.17446418  0.38289162  0.05820207    -0.12400
C2057       C  0.17777330  0.38019108  0.04097146     0.04200
C2058       C  0.19268475  0.37181824  0.03626980    -0.24600
H2059       H  0.24415794  0.35116500  0.05196897     0.09300
H2060       H  0.22234545  0.35642708  0.03078761     0.12900
H2061       H  0.21200566  0.37149159  0.09079494     0.12900
H2062       H  0.18364561  0.38120718  0.08357383     0.12600
H2063       H  0.16314763  0.38936048  0.06217805     0.13200
H2064       H  0.19540944  0.36965871  0.02303081     0.15100
C2065       C  0.34096352  0.41644243  0.03000556    -0.04900
C2066       C  0.32389000  0.41755855  0.02559281    -0.04800
C2067       C  0.31129103  0.41375287  0.03733576    -0.23000
C2068       C  0.31550238  0.40879891  0.05376343     0.19200
C2069       C  0.33256457  0.40862047  0.05871430     0.16400
C2070       C  0.34521045  0.41247962  0.04680439    -0.18000
C2071       C  0.33667592  0.40369181  0.07522273    -0.19900
C2072       C  0.32411105  0.39801418  0.08634354    -0.12400
C2073       C  0.30724003  0.39713284  0.08112952     0.04200
C2074       C  0.30298906  0.40313456  0.06499158    -0.24600
H2075       H  0.32024885  0.42046520  0.01275960     0.09300
H2076       H  0.29826491  0.41402637  0.03335688     0.12900
H2077       H  0.35832538  0.41152028  0.05037052     0.12900
H2078       H  0.34967190  0.40356108  0.07930428     0.12600
H2079       H  0.32772715  0.39339341  0.09866937     0.13200
H2080       H  0.29001826  0.40255895  0.06082847     0.15100
C2081       C  0.94530443  0.55720758  0.62078995    -0.04900
C2082       C  0.94391703  0.56336485  0.60420637    -0.04800
C2083       C  0.95440751  0.57630122  0.59835624    -0.23000
C2084       C  0.96636608  0.58364912  0.60906508     0.19200
C2085       C  0.96818705  0.57743421  0.62569786     0.16400
C2086       C  0.95781437  0.56402188  0.63140252    -0.18000
C2087       C  0.97994207  0.58517530  0.63645454    -0.19900
C2088       C  0.98941454  0.59915300  0.63095078    -0.12400
C2089       C  0.98755031  0.60552124  0.61449168     0.04200
C2090       C  0.97615233  0.59744950  0.60353230    -0.24600
H2091       H  0.93446558  0.55829732  0.59575486     0.09300
H2092       H  0.95284106  0.58087180  0.58556741     0.12900
H2093       H  0.95891573  0.55948732  0.64425801     0.12900
H2094       H  0.98155533  0.58065682  0.64925060     0.12600
H2095       H  0.99812159  0.60507854  0.63963932     0.13200
H2096       H  0.97449017  0.60223715  0.59082820     0.15100
C2097       C  0.04408754  0.64271364  0.55216322    -0.04900
C2098       C  0.04505087  0.65411898  0.53857858    -0.04800
C2099       C  0.05735048  0.65218964  0.52597538    -0.23000
C2100       C  0.06898149  0.63889727  0.52681880     0.19200
C2101       C  0.06773257  0.62713208  0.54019233     0.16400
C2102       C  0.05529693  0.62903870  0.55262272    -0.18000
C2103       C  0.07925133  0.61387063  0.54125556    -0.19900
C2104       C  0.09218301  0.61245321  0.52944206    -0.12400
C2105       C  0.09392395  0.62423826  0.51624913     0.04200
C2106       C  0.08208216  0.63736347  0.51485425    -0.24600
H2107       H  0.03657631  0.66476966  0.53792513     0.09300
H2108       H  0.05801671  0.66131923  0.51580546     0.12900
H2109       H  0.05473609  0.62012923  0.56300600     0.12900
H2110       H  0.07844874  0.60473692  0.55142061     0.12600
H2111       H  0.10105440  0.60220912  0.53085951     0.13200
H2112       H  0.08325507  0.64652048  0.50474616     0.15100
C2113       C  0.79549449  0.82212678  0.63023156    -0.04900
C2114       C  0.80310280  0.82400560  0.64612680    -0.04800
C2115       C  0.81711226  0.81439180  0.65058175    -0.23000
C2116       C  0.82401296  0.80277103  0.63916822     0.19200
C2117       C  0.81641708  0.80049355  0.62321677     0.16400
C2118       C  0.80207856  0.81006325  0.61889309    -0.18000
C2119       C  0.82357299  0.78897032  0.61178091    -0.19900
C2120       C  0.83811808  0.77992310  0.61606437    -0.12400
C2121       C  0.84579081  0.78213043  0.63190189     0.04200
C2122       C  0.83853822  0.79359663  0.64339979    -0.24600
H2123       H  0.79836871  0.83318202  0.65508563     0.09300
H2124       H  0.82275661  0.81629733  0.66287294     0.12900
H2125       H  0.79648160  0.80859835  0.60651788     0.12900
H2126       H  0.81800391  0.78705050  0.59945921     0.12600
H2127       H  0.84339573  0.77121961  0.60694765     0.13200
H2128       H  0.84428055  0.79551595  0.65564804     0.15100
C2129       C  0.87859589  0.72396060  0.69062864    -0.04900
C2130       C  0.86161745  0.71934026  0.69277174    -0.04800
C2131       C  0.85697047  0.70662399  0.70409754    -0.23000
C2132       C  0.86921997  0.69813969  0.71347649     0.19200
C2133       C  0.88626836  0.70311919  0.71208796     0.16400
C2134       C  0.89085920  0.71610837  0.70073980    -0.18000
C2135       C  0.89843925  0.69458917  0.72164570    -0.19900
C2136       C  0.89382847  0.68094852  0.73201664    -0.12400
C2137       C  0.87699532  0.67551901  0.73292150     0.04200
C2138       C  0.86472191  0.68441974  0.72381489    -0.24600
H2139       H  0.85190297  0.72523459  0.68527415     0.09300
H2140       H  0.84382410  0.70307769  0.70513518     0.12900
H2141       H  0.90399467  0.71952392  0.69921793     0.12900
H2142       H  0.91156722  0.69824298  0.72084155     0.12600
H2143       H  0.90349682  0.67434383  0.73895602     0.13200
H2144       H  0.85165498  0.68048675  0.72454416     0.15100
C2145       C  0.91948365  0.71891300  0.61468544    -0.04900
C2146       C  0.91563165  0.70155927  0.61532465    -0.04800
C2147       C  0.92715643  0.68955313  0.60945630    -0.23000
C2148       C  0.94286632  0.69465956  0.60306103     0.19200
C2149       C  0.94650950  0.71207990  0.60149610     0.16400
C2150       C  0.93472787  0.72407488  0.60710820    -0.18000
C2151       C  0.96228805  0.71720302  0.59529945    -0.19900
C2152       C  0.97474906  0.70524325  0.59181665    -0.12400
C2153       C  0.97161667  0.68792029  0.59427784     0.04200
C2154       C  0.95535379  0.68268977  0.59921287    -0.24600
H2155       H  0.90400655  0.69721417  0.62105354     0.09300
H2156       H  0.92409356  0.67624917  0.61066000     0.12900
H2157       H  0.93790205  0.73739858  0.60652814     0.12900
H2158       H  0.96526532  0.73050549  0.59389555     0.12600
H2159       H  0.98709217  0.70962172  0.58792675     0.13200
H2160       H  0.95271639  0.66937005  0.60109621     0.15100
C2161       C  0.96985084  0.88046000  0.55340435    -0.04900
C2162       C  0.96715992  0.86920413  0.53992425    -0.04800
C2163       C  0.95384545  0.87175168  0.52857906    -0.23000
C2164       C  0.94291192  0.88554080  0.53057997     0.19200
C2165       C  0.94582009  0.89709761  0.54386687     0.16400
C2166       C  0.95922382  0.89454469  0.55504806    -0.18000
C2167       C  0.93504415  0.91087120  0.54606311    -0.19900
C2168       C  0.92133725  0.91311756  0.53536963    -0.12400
C2169       C  0.91798681  0.90161803  0.52225359     0.04200
C2170       C  0.92895422  0.88784540  0.51982695    -0.24600
H2171       H  0.97508264  0.85821204  0.53840022     0.09300
H2172       H  0.95189630  0.86274936  0.51845831     0.12900
H2173       H  0.96104549  0.90332818  0.56539572     0.12900
H2174       H  0.93709232  0.91982838  0.55621110     0.12600
H2175       H  0.91311597  0.92376495  0.53762164     0.13200
H2176       H  0.92652670  0.87886950  0.50978030     0.15100
C2177       C  0.96378934  0.84568711  0.62760478    -0.04900
C2178       C  0.94696809  0.84901958  0.62336931    -0.04800
C2179       C  0.93406624  0.83819722  0.62853347    -0.23000
C2180       C  0.93770395  0.82375724  0.63801392     0.19200
C2181       C  0.95437600  0.82076815  0.64335311     0.16400
C2182       C  0.96736196  0.83185799  0.63820969    -0.18000
C2183       C  0.95782200  0.80622306  0.65289780    -0.19900
C2184       C  0.94510071  0.79427618  0.65613954    -0.12400
C2185       C  0.92874073  0.79671088  0.64991667     0.04200
C2186       C  0.92505233  0.81181897  0.64140317    -0.24600
H2187       H  0.94382617  0.85959229  0.61531194     0.09300
H2188       H  0.92132222  0.84073660  0.62446959     0.12900
H2189       H  0.98027936  0.82912230  0.64154770     0.12900
H2190       H  0.97048166  0.80374084  0.65724532     0.12600
H2191       H  0.94825924  0.78275959  0.66276719     0.13200
H2192       H  0.91246007  0.81393250  0.63664983     0.15100
C2193       C  0.16890822  0.73825167  0.64434611    -0.04900
C2194       C  0.17315601  0.72658370  0.65700142    -0.04800
C2195       C  0.18654915  0.71547708  0.65482048    -0.23000
C2196       C  0.19612321  0.71586036  0.63997670     0.19200
C2197       C  0.19253952  0.72798023  0.62739330     0.16400
C2198       C  0.17887349  0.73909445  0.62961334    -0.18000
C2199       C  0.20245501  0.72842309  0.61268367    -0.19900
C2200       C  0.21533594  0.71659646  0.61024367    -0.12400
C2201       C  0.21839999  0.70403112  0.62238091     0.04200
C2202       C  0.20891086  0.70397021  0.63735986    -0.24600
H2203       H  0.16579796  0.72568768  0.66849529     0.09300
H2204       H  0.18921798  0.70635708  0.66464209     0.12900
H2205       H  0.17582550  0.74811271  0.61980721     0.12900
H2206       H  0.20001243  0.73765917  0.60291305     0.12600
H2207       H  0.22242611  0.71683111  0.59854940     0.13200
H2208       H  0.21121716  0.69438391  0.64684102     0.15100
C2209       C  0.08841778  0.72349160  0.65265520    -0.04900
C2210       C  0.07229326  0.72520224  0.65974406    -0.04800
C2211       C  0.05955537  0.71346501  0.65603700    -0.23000
C2212       C  0.06277647  0.69970648  0.64530990     0.19200
C2213       C  0.07931846  0.69715438  0.63925241     0.16400
C2214       C  0.09199314  0.70906919  0.64290171    -0.18000
C2215       C  0.08269823  0.68322683  0.62886840    -0.19900
C2216       C  0.06963848  0.67261511  0.62354422    -0.12400
C2217       C  0.05288837  0.67575143  0.62836902     0.04200
C2218       C  0.04963322  0.68901230  0.63979625    -0.24600
H2219       H  0.06924207  0.73617803  0.66730615     0.09300
H2220       H  0.04701866  0.71554110  0.66099666     0.12900
H2221       H  0.10444667  0.70752509  0.63750832     0.12900
H2222       H  0.09534246  0.68093557  0.62428364     0.12600
H2223       H  0.07256396  0.66247960  0.61484140     0.13200
H2224       H  0.03681424  0.69151670  0.64373131     0.15100
C2225       C  0.04178339  0.83089933  0.59726373    -0.04900
C2226       C  0.03657121  0.81415047  0.60020107    -0.04800
C2227       C  0.04795549  0.80202618  0.60583378    -0.23000
C2228       C  0.06484085  0.80635536  0.60851750     0.19200
C2229       C  0.07053091  0.82286803  0.60468657     0.16400
C2230       C  0.05894458  0.83507652  0.59912539    -0.18000
C2231       C  0.08756330  0.82700717  0.60715818    -0.19900
C2232       C  0.09863634  0.81512619  0.61403479    -0.12400
C2233       C  0.09278291  0.79903978  0.61875642     0.04200
C2234       C  0.07594787  0.79462700  0.61561765    -0.24600
H2235       H  0.02346680  0.81057986  0.59893926     0.09300
H2236       H  0.04342656  0.78938527  0.60859531     0.12900
H2237       H  0.06314536  0.84794088  0.59692674     0.12900
H2238       H  0.09220428  0.83956574  0.60423156     0.12600
H2239       H  0.11153978  0.81880482  0.61650071     0.13200
H2240       H  0.07136693  0.78220292  0.61920998     0.15100
C2241       C  0.61151795  0.55285646  0.16735698    -0.04900
C2242       C  0.60049236  0.55704507  0.18058815    -0.04800
C2243       C  0.60412074  0.57068707  0.19132627    -0.23000
C2244       C  0.61883475  0.58033500  0.18898655     0.19200
C2245       C  0.62945449  0.57673851  0.17509999     0.16400
C2246       C  0.62565855  0.56317262  0.16435390    -0.18000
C2247       C  0.64426124  0.58611027  0.17273458    -0.19900
C2248       C  0.64917463  0.59808151  0.18468383    -0.12400
C2249       C  0.63920549  0.60121202  0.19900665     0.04200
C2250       C  0.62365764  0.59280967  0.20076510    -0.24600
H2251       H  0.58951527  0.54929017  0.18312656     0.09300
H2252       H  0.59577613  0.57326249  0.20184443     0.12900
H2253       H  0.63417945  0.56015552  0.15407989     0.12900
H2254       H  0.65247242  0.58359264  0.16208933     0.12600
H2255       H  0.66115728  0.60447273  0.18307471     0.13200
H2256       H  0.61599731  0.59503657  0.21188125     0.15100
C2257       C  0.62500884  0.55413563  0.32549459    -0.04900
C2258       C  0.61258269  0.56085400  0.31486575    -0.04800
C2259       C  0.61682907  0.57150323  0.30152448    -0.23000
C2260       C  0.63366245  0.57563983  0.29835067     0.19200
C2261       C  0.64640759  0.56927199  0.30896994     0.16400
C2262       C  0.64199083  0.55862538  0.32266498    -0.18000
C2263       C  0.66326792  0.57355279  0.30547631    -0.19900
C2264       C  0.66736148  0.58404002  0.29169846    -0.12400
C2265       C  0.65467132  0.59044894  0.28117680     0.04200
C2266       C  0.63784904  0.58606231  0.28464652    -0.24600
H2267       H  0.59942734  0.55775540  0.31679622     0.09300
H2268       H  0.60691119  0.57635770  0.29354624     0.12900
H2269       H  0.65169833  0.55349220  0.33072366     0.12900
H2270       H  0.67327659  0.56882554  0.31340373     0.12600
H2271       H  0.68041410  0.58728298  0.28939031     0.13200
H2272       H  0.62787249  0.59088596  0.27671442     0.15100
C2273       C  0.65262737  0.43722256  0.22519822    -0.04900
C2274       C  0.64173756  0.44988164  0.23103367    -0.04800
C2275       C  0.63543280  0.46203306  0.22004056    -0.23000
C2276       C  0.63963441  0.46155811  0.20287604     0.19200
C2277       C  0.65097406  0.44918477  0.19686904     0.16400
C2278       C  0.65762764  0.43717345  0.20815853    -0.18000
C2279       C  0.65490022  0.44869730  0.17958204    -0.19900
C2280       C  0.64743668  0.46011255  0.16836453    -0.12400
C2281       C  0.63589650  0.47219731  0.17421680     0.04200
C2282       C  0.63223283  0.47294142  0.19156834    -0.24600
H2283       H  0.63770249  0.45006140  0.24411172     0.09300
H2284       H  0.62680776  0.47144964  0.22486618     0.12900
H2285       H  0.66579661  0.42725453  0.20353323     0.12900
H2286       H  0.66350684  0.43930495  0.17469037     0.12600
H2287       H  0.65042231  0.45925099  0.15504793     0.13200
H2288       H  0.62337353  0.48221402  0.19626709     0.15100
C2289       C  0.63069216  0.42155575  0.29767948    -0.04900
C2290       C  0.61366657  0.42558740  0.29512558    -0.04800
C2291       C  0.60588192  0.43822663  0.30487921    -0.23000
C2292       C  0.61504175  0.44704484  0.31728484     0.19200
C2293       C  0.63187199  0.44226604  0.32042550     0.16400
C2294       C  0.63946145  0.42958422  0.31076781    -0.18000
C2295       C  0.64127039  0.45079206  0.33262970    -0.19900
C2296       C  0.63449547  0.46458359  0.34104255    -0.12400
C2297       C  0.61810876  0.47020454  0.33758852     0.04200
C2298       C  0.60811280  0.46099136  0.32606989    -0.24600
H2299       H  0.60665711  0.41962181  0.28503152     0.09300
H2300       H  0.59294360  0.44154815  0.30226783     0.12900
H2301       H  0.65256773  0.42652531  0.31292348     0.12900
H2302       H  0.65412318  0.44715942  0.33527904     0.12600
H2303       H  0.64236669  0.47117870  0.35005773     0.13200
H2304       H  0.59543364  0.46513572  0.32334732     0.15100
C2305       C  0.53737997  0.41597570  0.10805916    -0.04900
C2306       C  0.55364825  0.41572024  0.10101766    -0.04800
C2307       C  0.56521711  0.42850321  0.10446259    -0.23000
C2308       C  0.56080624  0.44196589  0.11498216     0.19200
C2309       C  0.54459105  0.44248122  0.12234216     0.16400
C2310       C  0.53292643  0.42938788  0.11889846    -0.18000
C2311       C  0.54042147  0.45614066  0.13289588    -0.19900
C2312       C  0.55217000  0.46909380  0.13602694    -0.12400
C2313       C  0.56829013  0.46860859  0.12866985     0.04200
C2314       C  0.57244570  0.45492087  0.11817566    -0.24600
H2315       H  0.55751977  0.40554081  0.09275048     0.09300
H2316       H  0.57762318  0.42789415  0.09878968     0.12900
H2317       H  0.52044711  0.42974107  0.12442786     0.12900
H2318       H  0.52809437  0.45681234  0.13871790     0.12600
H2319       H  0.54868290  0.47942774  0.14426759     0.13200
H2320       H  0.58483847  0.45428112  0.11246235     0.15100
C2321       C  0.42268998  0.39122504  0.01266356    -0.04900
C2322       C  0.42638629  0.37392342  0.01415361    -0.04800
C2323       C  0.44043828  0.36856759  0.02337675    -0.23000
C2324       C  0.45104858  0.38043371  0.03123826     0.19200
C2325       C  0.44763323  0.39784544  0.02934346     0.16400
C2326       C  0.43357163  0.40308728  0.02011640    -0.18000
C2327       C  0.45805738  0.40981435  0.03710982    -0.19900
C2328       C  0.47132257  0.40464544  0.04731244    -0.12400
C2329       C  0.47454757  0.38739982  0.04993380     0.04200
C2330       C  0.46461441  0.37528374  0.04144977    -0.24600
H2331       H  0.41821129  0.36452318  0.00850578     0.09300
H2332       H  0.44281956  0.35515630  0.02462227     0.12900
H2333       H  0.43093093  0.41647049  0.01902180     0.12900
H2334       H  0.45564973  0.42320638  0.03570616     0.12600
H2335       H  0.47874225  0.41422488  0.05366505     0.13200
H2336       H  0.46685127  0.36193997  0.04349670     0.15100
C2337       C  0.65120405  0.35222276  0.22595580    -0.04900
C2338       C  0.66215478  0.35016191  0.21212575    -0.04800
C2339       C  0.65973579  0.33708370  0.20054475    -0.23000
C2340       C  0.64632216  0.32572130  0.20254356     0.19200
C2341       C  0.63541674  0.32735465  0.21658163     0.16400
C2342       C  0.63790599  0.34061641  0.22820764    -0.18000
C2343       C  0.62212650  0.31578092  0.21861049    -0.19900
C2344       C  0.61955104  0.30288655  0.20675217    -0.12400
C2345       C  0.63010436  0.30142553  0.19256295     0.04200
C2346       C  0.64354451  0.31287609  0.19061278    -0.24600
H2347       H  0.67256416  0.35881602  0.21011789     0.09300
H2348       H  0.66828498  0.33595595  0.18992649     0.12900
H2349       H  0.62943961  0.34198081  0.23886590     0.12900
H2350       H  0.61364569  0.31677512  0.22929225     0.12600
H2351       H  0.60907461  0.29425989  0.20849290     0.13200
H2352       H  0.65183267  0.31181989  0.17977147     0.15100
C2353       C  0.58050920  0.29184080  0.12690189    -0.04900
C2354       C  0.56444499  0.29056296  0.13432572    -0.04800
C2355       C  0.55111619  0.30023652  0.12851148    -0.23000
C2356       C  0.55349323  0.31146399  0.11511092     0.19200
C2357       C  0.56934598  0.31260196  0.10703843     0.16400
C2358       C  0.58282983  0.30266549  0.11294427    -0.18000
C2359       C  0.57143848  0.32404004  0.09359596    -0.19900
C2360       C  0.55815203  0.33461162  0.08870222    -0.12400
C2361       C  0.54259021  0.33385806  0.09716387     0.04200
C2362       C  0.54031881  0.32195548  0.11009617    -0.24600
H2363       H  0.56219132  0.28226189  0.14496928     0.09300
H2364       H  0.53900851  0.29918959  0.13476609     0.12900
H2365       H  0.59512785  0.30375973  0.10709961     0.12900
H2366       H  0.58345339  0.32513391  0.08718951     0.12600
H2367       H  0.56024983  0.34380913  0.07879039     0.13200
H2368       H  0.52837544  0.32122957  0.11672127     0.15100
C2369       C  0.30738147  0.32299711  0.11993113    -0.04900
C2370       C  0.31382073  0.32323700  0.13643773    -0.04800
C2371       C  0.32647183  0.31218651  0.14129223    -0.23000
C2372       C  0.33314171  0.30067785  0.12971335     0.19200
C2373       C  0.32670273  0.29993497  0.11311255     0.16400
C2374       C  0.31369620  0.31106279  0.10830793    -0.18000
C2375       C  0.33372890  0.28836204  0.10162692    -0.19900
C2376       C  0.34724533  0.27805432  0.10645174    -0.12400
C2377       C  0.35387269  0.27906814  0.12286852     0.04200
C2378       C  0.34647548  0.29022809  0.13447193    -0.24600
H2379       H  0.30918005  0.33218656  0.14567101     0.09300
H2380       H  0.33126449  0.31287386  0.15406659     0.12900
H2381       H  0.30891330  0.31080119  0.09551370     0.12900
H2382       H  0.32900036  0.28751559  0.08884186     0.12600
H2383       H  0.35269913  0.26952895  0.09726971     0.13200
H2384       H  0.35140864  0.29116856  0.14718416     0.15100
C2385       C  0.42969770  0.29942279  0.14232623    -0.04900
C2386       C  0.44397955  0.30086379  0.15265112    -0.04800
C2387       C  0.45551899  0.31415363  0.15021517    -0.23000
C2388       C  0.45288286  0.32621748  0.13746592     0.19200
C2389       C  0.43790027  0.32544361  0.12792426     0.16400
C2390       C  0.42645125  0.31216055  0.13045349    -0.18000
C2391       C  0.43499693  0.33740731  0.11528647    -0.19900
C2392       C  0.44732182  0.34931122  0.11123282    -0.12400
C2393       C  0.46282069  0.34957793  0.11973881     0.04200
C2394       C  0.46528344  0.33840259  0.13337695    -0.24600
H2395       H  0.44669788  0.29122887  0.16194141     0.09300
H2396       H  0.46682261  0.31458566  0.15780978     0.12900
H2397       H  0.41534929  0.31129742  0.12256889     0.12900
H2398       H  0.42349137  0.33707902  0.10798776     0.12600
H2399       H  0.44501767  0.35780000  0.10077844     0.13200
H2400       H  0.47719036  0.33842073  0.14000472     0.15100
C2401       C  0.43072332  0.21940733  0.10885664    -0.04900
C2402       C  0.42504803  0.20353222  0.10324621    -0.04800
C2403       C  0.43652078  0.19154733  0.09719033    -0.23000
C2404       C  0.45381933  0.19526641  0.09675218     0.19200
C2405       C  0.45943607  0.21154989  0.10150765     0.16400
C2406       C  0.44787752  0.22349753  0.10735040    -0.18000
C2407       C  0.47664383  0.21538836  0.10123768    -0.19900
C2408       C  0.48832701  0.20290560  0.09733830    -0.12400
C2409       C  0.48302001  0.18640390  0.09347767     0.04200
C2410       C  0.46567743  0.18279737  0.09255909    -0.24600
H2411       H  0.41187781  0.20011409  0.10426500     0.09300
H2412       H  0.43194854  0.17916809  0.09350325     0.12900
H2413       H  0.45239385  0.23575610  0.11151386     0.12900
H2414       H  0.48111745  0.22785844  0.10473994     0.12600
H2415       H  0.50159086  0.20602147  0.09800979     0.13200
H2416       H  0.46145037  0.17009418  0.08960408     0.15100
C2417       C  0.56002884  0.16823727  0.12470881    -0.04900
C2418       C  0.57606587  0.16862423  0.11716411    -0.04800
C2419       C  0.58826728  0.18015271  0.12254892    -0.23000
C2420       C  0.58470220  0.19149542  0.13564263     0.19200
C2421       C  0.56907021  0.19048348  0.14414499     0.16400
C2422       C  0.55680544  0.17883968  0.13862602    -0.18000
C2423       C  0.56567012  0.20178674  0.15738436    -0.19900
C2424       C  0.57715381  0.21466313  0.16136975    -0.12400
C2425       C  0.59215154  0.21648520  0.15211516     0.04200
C2426       C  0.59612485  0.20443755  0.13969773    -0.24600
H2427       H  0.57890071  0.16064649  0.10642306     0.09300
H2428       H  0.60024109  0.18067013  0.11598726     0.12900
H2429       H  0.54450285  0.17866761  0.14456196     0.12900
H2430       H  0.55383129  0.20112428  0.16416822     0.12600
H2431       H  0.57383346  0.22379954  0.17098563     0.13200
H2432       H  0.60774254  0.20565070  0.13257939     0.15100
C2433       C  0.59822884  0.11853305  0.01319725    -0.04900
C2434       C  0.59117773  0.10414287  0.02092432    -0.04800
C2435       C  0.57678573  0.10537259  0.03092344    -0.23000
C2436       C  0.56919174  0.12106458  0.03355058     0.19200
C2437       C  0.57557383  0.13554481  0.02519756     0.16400
C2438       C  0.59001874  0.13417475  0.01491819    -0.18000
C2439       C  0.56785015  0.15122754  0.02796121    -0.19900
C2440       C  0.55465849  0.15268403  0.03964169    -0.12400
C2441       C  0.54896333  0.13848559  0.04872104     0.04200
C2442       C  0.55589695  0.12260577  0.04511616    -0.24600
H2443       H  0.59709821  0.09190752  0.01964301     0.09300
H2444       H  0.57196468  0.09413066  0.03710692     0.12900
H2445       H  0.59530305  0.14535319  0.00899522     0.12900
H2446       H  0.57244722  0.16247168  0.02161857     0.12600
H2447       H  0.54951591  0.16507482  0.04220678     0.13200
H2448       H  0.55154772  0.11155409  0.05197229     0.15100
C2449       C  0.63800618  0.06991225  0.95663248    -0.04900
C2450       C  0.64939795  0.05660953  0.95412870    -0.04800
C2451       C  0.64660207  0.04455859  0.94140847    -0.23000
C2452       C  0.63234909  0.04560257  0.93099535     0.19200
C2453       C  0.62057038  0.05862024  0.93388144     0.16400
C2454       C  0.62344601  0.07059102  0.94662078    -0.18000
C2455       C  0.60627431  0.05977715  0.92369123    -0.19900
C2456       C  0.60386116  0.04848297  0.91039857    -0.12400
C2457       C  0.61566960  0.03574579  0.90694082     0.04200
C2458       C  0.62982169  0.03418419  0.91752002    -0.24600
H2459       H  0.66070645  0.05581061  0.96166555     0.09300
H2460       H  0.65575856  0.03464120  0.93949027     0.12900
H2461       H  0.61447114  0.08070728  0.94847852     0.12900
H2462       H  0.59708107  0.06963216  0.92580238     0.12600
H2463       H  0.59281464  0.04996440  0.90257935     0.13200
H2464       H  0.63897727  0.02437188  0.91507977     0.15100
C2465       C  0.73828269  0.14797643  0.83560912    -0.04900
C2466       C  0.72601901  0.16025377  0.83210976    -0.04800
C2467       C  0.71422643  0.15779162  0.81934774    -0.23000
C2468       C  0.71450299  0.14306292  0.80958864     0.19200
C2469       C  0.72710977  0.13084168  0.81241084     0.16400
C2470       C  0.73890059  0.13330726  0.82551649    -0.18000
C2471       C  0.72746948  0.11630689  0.80221085    -0.19900
C2472       C  0.71527504  0.11378218  0.78965706    -0.12400
C2473       C  0.70237573  0.12562487  0.78723296     0.04200
C2474       C  0.70219978  0.14031366  0.79720144    -0.24600
H2475       H  0.72522236  0.17169084  0.83957731     0.09300
H2476       H  0.70474030  0.16735137  0.81725347     0.12900
H2477       H  0.74835013  0.12379937  0.82796618     0.12900
H2478       H  0.73706739  0.10681637  0.80405059     0.12600
H2479       H  0.71567467  0.10235861  0.78213843     0.13200
H2480       H  0.69240860  0.14962510  0.79536402     0.15100
C2481       C  0.80350293  0.19700728  0.86310027    -0.04900
C2482       C  0.81168545  0.19413597  0.84759238    -0.04800
C2483       C  0.82518773  0.20424195  0.84242271    -0.23000
C2484       C  0.83094050  0.21746851  0.85267333     0.19200
C2485       C  0.82263344  0.22086051  0.86810894     0.16400
C2486       C  0.80885390  0.21067937  0.87319964    -0.18000
C2487       C  0.82857366  0.23410380  0.87833001    -0.19900
C2488       C  0.84270092  0.24366185  0.87345074    -0.12400
C2489       C  0.85118276  0.24023761  0.85822652     0.04200
C2490       C  0.84506560  0.22713631  0.84784256    -0.24600
H2491       H  0.80785833  0.18376117  0.83952619     0.09300
H2492       H  0.83135108  0.20148111  0.83052489     0.12900
H2493       H  0.80276402  0.21298332  0.88523529     0.12900
H2494       H  0.82242635  0.23694230  0.89021237     0.12600
H2495       H  0.84710905  0.25363633  0.88170872     0.13200
H2496       H  0.85144499  0.22426948  0.83607786     0.15100
C2497       C  0.73050569  0.15915036  0.92052930    -0.04900
C2498       C  0.73597073  0.15675269  0.93719718    -0.04800
C2499       C  0.72462452  0.15193071  0.94984163    -0.23000
C2500       C  0.70753497  0.14962755  0.94611211     0.19200
C2501       C  0.70165817  0.15300124  0.92964261     0.16400
C2502       C  0.71320430  0.15763205  0.91691022    -0.18000
C2503       C  0.68444427  0.15104648  0.92609646    -0.19900
C2504       C  0.67331270  0.14515072  0.93855811    -0.12400
C2505       C  0.67925660  0.14087091  0.95466817     0.04200
C2506       C  0.69635350  0.14344760  0.95843383    -0.24600
H2507       H  0.74920307  0.15771152  0.94028710     0.09300
H2508       H  0.72931111  0.14952123  0.96243791     0.12900
H2509       H  0.70882833  0.15946464  0.90409670     0.12900
H2510       H  0.67966487  0.15367934  0.91358205     0.12600
H2511       H  0.66020632  0.14319409  0.93537104     0.13200
H2512       H  0.70103003  0.14027605  0.97087478     0.15100
C2513       C  0.92138026  0.13199324  0.98557530    -0.04900
C2514       C  0.92867816  0.14815070  0.98721335    -0.04800
C2515       C  0.94337749  0.15241074  0.97821095    -0.23000
C2516       C  0.95092194  0.14064979  0.96725711     0.19200
C2517       C  0.94383606  0.12428393  0.96593674     0.16400
C2518       C  0.92934445  0.12005112  0.97517546    -0.18000
C2519       C  0.95094146  0.11250152  0.95488452    -0.19900
C2520       C  0.96449511  0.11703389  0.94463534    -0.12400
C2521       C  0.97146409  0.13337411  0.94531983     0.04200
C2522       C  0.96492023  0.14506445  0.95706604    -0.24600
H2523       H  0.92283029  0.15759685  0.99516485     0.09300
H2524       H  0.94856739  0.16503182  0.97946340     0.12900
H2525       H  0.92389982  0.10754845  0.97373629     0.12900
H2526       H  0.94566081  0.09990282  0.95374968     0.12600
H2527       H  0.96927592  0.10779989  0.93575930     0.13200
H2528       H  0.97004322  0.15776978  0.95757319     0.15100
C2529       C  0.88006390  0.07352599  0.03826572    -0.04900
C2530       C  0.86700843  0.06243144  0.04301711    -0.04800
C2531       C  0.86947065  0.05044344  0.05587626    -0.23000
C2532       C  0.88507374  0.04927399  0.06413073     0.19200
C2533       C  0.89845388  0.05981997  0.05875328     0.16400
C2534       C  0.89586946  0.07179703  0.04596351    -0.18000
C2535       C  0.91413262  0.05867005  0.06662173    -0.19900
C2536       C  0.91643787  0.04771925  0.08018097    -0.12400
C2537       C  0.90313297  0.03764225  0.08630709     0.04200
C2538       C  0.88747470  0.03820048  0.07794047    -0.24600
H2539       H  0.85470856  0.06349241  0.03728504     0.09300
H2540       H  0.85905446  0.04240680  0.05965679     0.12900
H2541       H  0.90610530  0.08014921  0.04232220     0.12900
H2542       H  0.92455806  0.06655488  0.06254200     0.12600
H2543       H  0.92865317  0.04750510  0.08618819     0.13200
H2544       H  0.87712312  0.03043246  0.08241416     0.15100
C2545       C  0.84692499  0.12135315  0.95665622    -0.04900
C2546       C  0.85286127  0.13390419  0.94553724    -0.04800
C2547       C  0.84429395  0.13760492  0.93066318    -0.23000
C2548       C  0.82942552  0.12898607  0.92661553     0.19200
C2549       C  0.82358242  0.11583698  0.93721465     0.16400
C2550       C  0.83249854  0.11193733  0.95213385    -0.18000
C2551       C  0.80849190  0.10747088  0.93307765    -0.19900
C2552       C  0.79877011  0.11287422  0.91931518    -0.12400
C2553       C  0.80408816  0.12657642  0.90930305     0.04200
C2554       C  0.81984270  0.13403404  0.91265803    -0.24600
H2555       H  0.86400036  0.14122775  0.94855083     0.09300
H2556       H  0.84898662  0.14766674  0.92262677     0.12900
H2557       H  0.82776543  0.10223461  0.96057372     0.12900
H2558       H  0.80380687  0.09728225  0.94094591     0.12600
H2559       H  0.78669107  0.10692158  0.91706557     0.13200
H2560       H  0.82417240  0.14460688  0.90507469     0.15100
C2561       C  0.77763087  0.15249231  0.16060645    -0.04900
C2562       C  0.78657246  0.16607009  0.16782270    -0.04800
C2563       C  0.79745034  0.16351118  0.18140372    -0.23000
C2564       C  0.79969673  0.14728646  0.18808634     0.19200
C2565       C  0.79053186  0.13355044  0.18126817     0.16400
C2566       C  0.77951529  0.13623488  0.16759595    -0.18000
C2567       C  0.79283350  0.11732806  0.18804503    -0.19900
C2568       C  0.80431931  0.11469480  0.20117926    -0.12400
C2569       C  0.81380956  0.12820212  0.20774334     0.04200
C2570       C  0.81123886  0.14453569  0.20122017    -0.24600
H2571       H  0.78538295  0.17872028  0.16276460     0.09300
H2572       H  0.80432365  0.17420434  0.18650120     0.12900
H2573       H  0.77276280  0.12563519  0.16215500     0.12900
H2574       H  0.78593959  0.10662135  0.18301440     0.12600
H2575       H  0.80612174  0.10198727  0.20588316     0.13200
H2576       H  0.81845374  0.15508730  0.20615297     0.15100
C2577       C  0.71692896  0.20524452  0.12169905    -0.04900
C2578       C  0.71002738  0.21354853  0.10765951    -0.04800
C2579       C  0.69667055  0.22490386  0.10966483    -0.23000
C2580       C  0.69009435  0.22829968  0.12578237     0.19200
C2581       C  0.69755612  0.22062067  0.14001928     0.16400
C2582       C  0.71081364  0.20912616  0.13788901    -0.18000
C2583       C  0.69127408  0.22410009  0.15616002    -0.19900
C2584       C  0.67724262  0.23442806  0.15818541    -0.12400
C2585       C  0.66910463  0.24151669  0.14413780     0.04200
C2586       C  0.67588613  0.23874314  0.12791520    -0.24600
H2587       H  0.71447022  0.21069961  0.09504337     0.09300
H2588       H  0.69122405  0.23069943  0.09857817     0.12900
H2589       H  0.71608406  0.20285248  0.14881483     0.12900
H2590       H  0.69694118  0.21846625  0.16722080     0.12600
H2591       H  0.67243171  0.23643544  0.17082978     0.13200
H2592       H  0.66977656  0.24413567  0.11696957     0.15100
C2593       C  0.84100475  0.14759970  0.04142243    -0.04900
C2594       C  0.84611412  0.14865279  0.05835099    -0.04800
C2595       C  0.83480071  0.15372010  0.07090849    -0.23000
C2596       C  0.81822249  0.15799420  0.06672202     0.19200
C2597       C  0.81331331  0.15817763  0.04959050     0.16400
C2598       C  0.82471324  0.15291583  0.03705222    -0.18000
C2599       C  0.79682656  0.16280551  0.04539558    -0.19900
C2600       C  0.78502189  0.16615077  0.05809319    -0.12400
C2601       C  0.78946248  0.16481225  0.07519437     0.04200
C2602       C  0.80626851  0.16127120  0.07940567    -0.24600
H2603       H  0.85858366  0.14463255  0.06202156     0.09300
H2604       H  0.83883776  0.15368354  0.08395979     0.12900
H2605       H  0.82069066  0.15228453  0.02400303     0.12900
H2606       H  0.79288750  0.16321670  0.03232239     0.12600
H2607       H  0.77218354  0.16891465  0.05452674     0.13200
H2608       H  0.80988229  0.16036433  0.09255849     0.15100
C2609       C  0.67334422  0.12176719  0.03818848    -0.04900
C2610       C  0.66861758  0.13643256  0.04700567    -0.04800
C2611       C  0.67689531  0.14127090  0.06172756    -0.23000
C2612       C  0.69034860  0.13173545  0.06783264     0.19200
C2613       C  0.69509924  0.11674025  0.05940174     0.16400
C2614       C  0.68635140  0.11165575  0.04473189    -0.18000
C2615       C  0.70902328  0.10763729  0.06536372    -0.19900
C2616       C  0.71873028  0.11393765  0.07878374    -0.12400
C2617       C  0.71436261  0.12915910  0.08681238     0.04200
C2618       C  0.69969800  0.13755964  0.08166713    -0.24600
H2619       H  0.65857264  0.14436906  0.04237518     0.09300
H2620       H  0.67311574  0.15280985  0.06803220     0.12900
H2621       H  0.69015783  0.10035836  0.03802402     0.12900
H2622       H  0.71288727  0.09609364  0.05913593     0.12600
H2623       H  0.73000088  0.10725940  0.08245186     0.13200
H2624       H  0.69625510  0.14941646  0.08758210     0.15100
C2625       C  0.63595078  0.79824785  0.80573697    -0.04900
C2626       C  0.65274763  0.80384466  0.80580053    -0.04800
C2627       C  0.65780017  0.81767921  0.79602705    -0.23000
C2628       C  0.64607236  0.82645883  0.78622073     0.19200
C2629       C  0.62917111  0.82083195  0.78579464     0.16400
C2630       C  0.62425287  0.80658203  0.79536229    -0.18000
C2631       C  0.61741431  0.82991748  0.77625092    -0.19900
C2632       C  0.62229022  0.84452626  0.76744327    -0.12400
C2633       C  0.63904161  0.85031418  0.76788998     0.04200
C2634       C  0.65089916  0.84104156  0.77722575    -0.24600
H2635       H  0.66195234  0.79768772  0.81372738     0.09300
H2636       H  0.67080516  0.82180382  0.79651783     0.12900
H2637       H  0.61119920  0.80255692  0.79543873     0.12900
H2638       H  0.60437747  0.82589083  0.77582228     0.12600
H2639       H  0.61287108  0.85144574  0.76046659     0.13200
H2640       H  0.66383849  0.84537880  0.77782340     0.15100
C2641       C  0.52143361  0.92304851  0.87525575    -0.04900
C2642       C  0.52097304  0.92998829  0.85891462    -0.04800
C2643       C  0.53141567  0.94368348  0.85454381    -0.23000
C2644       C  0.54252274  0.95070043  0.86644142     0.19200
C2645       C  0.54270819  0.94403709  0.88299901     0.16400
C2646       C  0.53218737  0.93038951  0.88728387    -0.18000
C2647       C  0.55374409  0.95081516  0.89497098    -0.19900
C2648       C  0.56488080  0.96373193  0.89052987    -0.12400
C2649       C  0.56521859  0.97030503  0.87404682     0.04200
C2650       C  0.55373845  0.96391941  0.86205640    -0.24600
H2651       H  0.51285087  0.92455090  0.84938085     0.09300
H2652       H  0.53102709  0.94857051  0.84177900     0.12900
H2653       H  0.53270066  0.92520773  0.89993741     0.12900
H2654       H  0.55401144  0.94588798  0.90772647     0.12600
H2655       H  0.57349444  0.96841383  0.90002905     0.13200
H2656       H  0.55392808  0.96878732  0.84927050     0.15100
C2657       C  0.58743006  0.80263025  0.86843727    -0.04900
C2658       C  0.58388903  0.80326088  0.88581390    -0.04800
C2659       C  0.57133451  0.81406292  0.89206537    -0.23000
C2660       C  0.56221717  0.82449439  0.88104329     0.19200
C2661       C  0.56617580  0.82426180  0.86363528     0.16400
C2662       C  0.57864419  0.81339813  0.85750034    -0.18000
C2663       C  0.55738236  0.83464620  0.85248825    -0.19900
C2664       C  0.54454277  0.84499207  0.85840400    -0.12400
C2665       C  0.54006413  0.84517868  0.87560552     0.04200
C2666       C  0.54908527  0.83494697  0.88696541    -0.24600
H2667       H  0.59040005  0.79498925  0.89446848     0.09300
H2668       H  0.56857068  0.81404864  0.90546218     0.12900
H2669       H  0.58128556  0.81309410  0.84406227     0.12900
H2670       H  0.56030813  0.83463931  0.83911568     0.12600
H2671       H  0.53789250  0.85269287  0.84933278     0.13200
H2672       H  0.54579173  0.83496681  0.90024825     0.15100
C2673       C  0.57703919  0.72743050  0.84902219    -0.04900
C2674       C  0.56152195  0.73359995  0.85474160    -0.04800
C2675       C  0.54886273  0.72249850  0.86001455    -0.23000
C2676       C  0.55175152  0.70503799  0.86017982     0.19200
C2677       C  0.56709613  0.69862004  0.85382039     0.16400
C2678       C  0.57960842  0.70990058  0.84802378    -0.18000
C2679       C  0.56999799  0.68112627  0.85433704    -0.19900
C2680       C  0.55826562  0.67024252  0.86196974    -0.12400
C2681       C  0.54347340  0.67669357  0.86918989     0.04200
C2682       C  0.54001825  0.69403335  0.86765073    -0.24600
H2683       H  0.55943498  0.74709043  0.85568764     0.09300
H2684       H  0.53715454  0.72761620  0.86478884     0.12900
H2685       H  0.59170814  0.70513766  0.84389963     0.12900
H2686       H  0.58165164  0.67595297  0.84950108     0.12600
H2687       H  0.56119259  0.65693642  0.86306073     0.13200
H2688       H  0.52857520  0.69911025  0.87310597     0.15100
C2689       C  0.43017581  0.79097994  0.83958395    -0.04900
C2690       C  0.44736938  0.78804022  0.83677245    -0.04800
C2691       C  0.45929862  0.80051916  0.84067697    -0.23000
C2692       C  0.45415670  0.81615523  0.84727500     0.19200
C2693       C  0.43679883  0.81968151  0.84872606     0.16400
C2694       C  0.42494937  0.80707470  0.84489928    -0.18000
C2695       C  0.43158436  0.83544573  0.85487380    -0.19900
C2696       C  0.44343437  0.84729729  0.86042127    -0.12400
C2697       C  0.46062807  0.84345269  0.86017311     0.04200
C2698       C  0.46598089  0.82800322  0.85322511    -0.24600
H2699       H  0.45165929  0.77574018  0.83263303     0.09300
H2700       H  0.47254654  0.79768417  0.83922549     0.12900
H2701       H  0.41167764  0.80950827  0.84689605     0.12900
H2702       H  0.41832366  0.83838591  0.85593256     0.12600
H2703       H  0.43911519  0.85909624  0.86580337     0.13200
H2704       H  0.47928180  0.82503264  0.85294287     0.15100
C2705       C  0.42182385  0.71483524  0.87856005    -0.04900
C2706       C  0.41673346  0.69783708  0.87971652    -0.04800
C2707       C  0.42738230  0.68568322  0.88674238    -0.23000
C2708       C  0.44329319  0.69030767  0.89289237     0.19200
C2709       C  0.44809908  0.70752619  0.89284166     0.16400
C2710       C  0.43738970  0.71965743  0.88560534    -0.18000
C2711       C  0.46386425  0.71219275  0.89934497    -0.19900
C2712       C  0.47512467  0.69985461  0.90495772    -0.12400
C2713       C  0.47095215  0.68261551  0.90393079     0.04200
C2714       C  0.45479063  0.67795452  0.89830674    -0.24600
H2715       H  0.40484859  0.69376809  0.87440476     0.09300
H2716       H  0.42339859  0.67257001  0.88683517     0.12900
H2717       H  0.44145810  0.73273196  0.88487942     0.12900
H2718       H  0.46773142  0.72533906  0.89953192     0.12600
H2719       H  0.48753335  0.70374241  0.90908002     0.13200
H2720       H  0.45144317  0.66468224  0.89747498     0.15100
C2721       C  0.34878084  0.77758790  0.85244963    -0.04900
C2722       C  0.34215486  0.78674331  0.83878936    -0.04800
C2723       C  0.32840768  0.79747619  0.84096550    -0.23000
C2724       C  0.32093189  0.79937325  0.85688512     0.19200
C2725       C  0.32711668  0.78997366  0.87069304     0.16400
C2726       C  0.34100100  0.77911029  0.86840179    -0.18000
C2727       C  0.31952180  0.79193919  0.88660323    -0.19900
C2728       C  0.30637206  0.80349494  0.88891189    -0.12400
C2729       C  0.30051072  0.81331548  0.87536519     0.04200
C2730       C  0.30768513  0.81088004  0.85928050    -0.24600
H2731       H  0.34779655  0.78583427  0.82636373     0.09300
H2732       H  0.32380550  0.80452926  0.83022015     0.12900
H2733       H  0.34592661  0.77214085  0.87905664     0.12900
H2734       H  0.32399215  0.78481145  0.89735244     0.12600
H2735       H  0.30110487  0.80508852  0.90142981     0.13200
H2736       H  0.30330659  0.81831128  0.84868848     0.15100
C2737       C  0.22373094  0.85305336  0.91921249    -0.04900
C2738       C  0.22675509  0.84951755  0.93631965    -0.04800
C2739       C  0.21456611  0.85314466  0.94861545    -0.23000
C2740       C  0.19910006  0.86028767  0.94399431     0.19200
C2741       C  0.19556984  0.86285523  0.92671188     0.16400
C2742       C  0.20786199  0.85920522  0.91446737    -0.18000
C2743       C  0.18013917  0.86989539  0.92199741    -0.19900
C2744       C  0.16873493  0.87535031  0.93427989    -0.12400
C2745       C  0.17245452  0.87381544  0.95154776     0.04200
C2746       C  0.18748036  0.86571420  0.95632436    -0.24600
H2747       H  0.23889142  0.84482870  0.94029884     0.09300
H2748       H  0.21749108  0.85097005  0.96178305     0.12900
H2749       H  0.20535435  0.86190193  0.90129762     0.12900
H2750       H  0.17717113  0.87182628  0.90880040     0.12600
H2751       H  0.15729847  0.88149898  0.93022147     0.13200
H2752       H  0.19056834  0.86448636  0.96958293     0.15100
C2753       C  0.21900722  0.89115440  0.07679208    -0.04900
C2754       C  0.20237399  0.89298599  0.08249838    -0.04800
C2755       C  0.18981183  0.89864019  0.07154733    -0.23000
C2756       C  0.19369599  0.90267050  0.05472219     0.19200
C2757       C  0.21055807  0.90174284  0.04911190     0.16400
C2758       C  0.22308582  0.89596957  0.06016037    -0.18000
C2759       C  0.21446739  0.90585888  0.03232332    -0.19900
C2760       C  0.20168846  0.90998281  0.02096152    -0.12400
C2761       C  0.18476040  0.91000763  0.02615018     0.04200
C2762       C  0.18091788  0.90682689  0.04322421    -0.24600
H2763       H  0.19890280  0.88919823  0.09517856     0.09300
H2764       H  0.17696096  0.89931704  0.07608403     0.12900
H2765       H  0.23588604  0.89458504  0.05561651     0.12900
H2766       H  0.22733910  0.90530400  0.02782268     0.12600
H2767       H  0.20499166  0.91230309  0.00789040     0.13200
H2768       H  0.16791721  0.90680594  0.04739506     0.15100
C2769       C  0.46422307  0.88535903  0.93227047    -0.04900
C2770       C  0.46299424  0.87402212  0.94588514    -0.04800
C2771       C  0.45055008  0.87608999  0.95833820    -0.23000
C2772       C  0.43917972  0.88961886  0.95748325     0.19200
C2773       C  0.44085552  0.90149047  0.94424944     0.16400
C2774       C  0.45328134  0.89928460  0.93179163    -0.18000
C2775       C  0.42980463  0.91519181  0.94341636    -0.19900
C2776       C  0.41695853  0.91696588  0.95533144    -0.12400
C2777       C  0.41471980  0.90502819  0.96831361     0.04200
C2778       C  0.42601320  0.89137067  0.96938995    -0.24600
H2779       H  0.47126441  0.86321206  0.94658224     0.09300
H2780       H  0.44961174  0.86691764  0.96844680     0.12900
H2781       H  0.45415956  0.90823483  0.92146496     0.12900
H2782       H  0.43095252  0.92445029  0.93339877     0.12600
H2783       H  0.40848853  0.92757708  0.95413273     0.13200
H2784       H  0.42450083  0.88210989  0.97935798     0.15100
C2785       C  0.29987851  0.89118637  0.91022297    -0.04900
C2786       C  0.31669910  0.89292253  0.90498936    -0.04800
C2787       C  0.32880550  0.89955505  0.91595390    -0.23000
C2788       C  0.32428976  0.90452574  0.93234746     0.19200
C2789       C  0.30722976  0.90385039  0.93736515     0.16400
C2790       C  0.29513048  0.89727045  0.92624609    -0.18000
C2791       C  0.30271073  0.90889687  0.95374476    -0.19900
C2792       C  0.31509651  0.91357381  0.96537554    -0.12400
C2793       C  0.33217884  0.91317855  0.96083107     0.04200
C2794       C  0.33664207  0.90922507  0.94409803    -0.24600
H2795       H  0.32067317  0.88834353  0.89273268     0.09300
H2796       H  0.34181488  0.90011875  0.91185998     0.12900
H2797       H  0.28218366  0.89604433  0.93042917     0.12900
H2798       H  0.28967445  0.90854787  0.95777540     0.12600
H2799       H  0.31138178  0.91650016  0.97820934     0.13200
H2800       H  0.34980076  0.90895649  0.94046581     0.15100
C2801       C  0.34474882  0.87551445  0.03428707    -0.04900
C2802       C  0.34989625  0.87531925  0.05124039    -0.04800
C2803       C  0.33898089  0.86975234  0.06396282    -0.23000
C2804       C  0.32272562  0.86412333  0.05998236     0.19200
C2805       C  0.31787283  0.86284253  0.04287313     0.16400
C2806       C  0.32891091  0.86857624  0.03010810    -0.18000
C2807       C  0.30169675  0.85679473  0.03895488    -0.19900
C2808       C  0.29013743  0.85309269  0.05185981    -0.12400
C2809       C  0.29447584  0.85562277  0.06884412     0.04200
C2810       C  0.31094887  0.86069595  0.07283951    -0.24600
H2811       H  0.36199398  0.88051419  0.05482932     0.09300
H2812       H  0.34299586  0.87058009  0.07699409     0.12900
H2813       H  0.32477875  0.86856937  0.01707888     0.12900
H2814       H  0.29775904  0.85558289  0.02592684     0.12600
H2815       H  0.27744853  0.84934009  0.04853794     0.13200
H2816       H  0.31434924  0.86268121  0.08593810     0.15100
C2817       C  0.13072738  0.94953697  0.95612666    -0.04900
C2818       C  0.11352098  0.95121501  0.95247728    -0.04800
C2819       C  0.10799921  0.96257658  0.94025827    -0.23000
C2820       C  0.11956789  0.97245311  0.93122242     0.19200
C2821       C  0.13689021  0.97144166  0.93506479     0.16400
C2822       C  0.14239447  0.96004983  0.94763257    -0.18000
C2823       C  0.14834678  0.98142322  0.92582701    -0.19900
C2824       C  0.14274457  0.99171780  0.91254209    -0.12400
C2825       C  0.12558661  0.99224010  0.90824966     0.04200
C2826       C  0.11406282  0.98284628  0.91799262    -0.24600
H2827       H  0.10425858  0.94340154  0.95884941     0.09300
H2828       H  0.09466973  0.96327605  0.93753728     0.12900
H2829       H  0.15571005  0.95884813  0.95024854     0.12900
H2830       H  0.16167827  0.98093840  0.92857926     0.12600
H2831       H  0.15190094  0.99885540  0.90529038     0.13200
H2832       H  0.10078431  0.98318120  0.91493663     0.15100
C2833       C  0.06475071  0.05048303  0.87258427    -0.04900
C2834       C  0.05406264  0.05576157  0.85949902    -0.04800
C2835       C  0.04276099  0.06911400  0.86199403    -0.23000
C2836       C  0.04195184  0.07747181  0.87762282     0.19200
C2837       C  0.05233889  0.07192690  0.89095972     0.16400
C2838       C  0.06356680  0.05850216  0.88838288    -0.18000
C2839       C  0.05173864  0.08023177  0.90655464    -0.19900
C2840       C  0.04141887  0.09427455  0.90879434    -0.12400
C2841       C  0.03132539  0.10028184  0.89556074     0.04200
C2842       C  0.03136311  0.09155457  0.88004376    -0.24600
H2843       H  0.05480807  0.04991155  0.84716164     0.09300
H2844       H  0.03493613  0.07314665  0.85158573     0.12900
H2845       H  0.07174813  0.05461743  0.89858062     0.12900
H2846       H  0.05955354  0.07610326  0.91693612     0.12600
H2847       H  0.04154861  0.10062966  0.92090424     0.13200
H2848       H  0.02366579  0.09605693  0.86972662     0.15100
C2849       C  0.14268518  0.85453202  0.73014788    -0.04900
C2850       C  0.12630636  0.84796865  0.73209209    -0.04800
C2851       C  0.12092782  0.83400321  0.72253355    -0.23000
C2852       C  0.13180210  0.82639319  0.71078048     0.19200
C2853       C  0.14826335  0.83296096  0.70878616     0.16400
C2854       C  0.15358289  0.84682580  0.71848317    -0.18000
C2855       C  0.15914993  0.82573543  0.69692631    -0.19900
C2856       C  0.15376834  0.81228661  0.68691165    -0.12400
C2857       C  0.13746060  0.80555609  0.68864716     0.04200
C2858       C  0.12652071  0.81255588  0.70079310    -0.24600
H2859       H  0.11761067  0.85370935  0.74091595     0.09300
H2860       H  0.10822844  0.82925725  0.72422982     0.12900
H2861       H  0.16620612  0.85177837  0.71673289     0.12900
H2862       H  0.17179457  0.83063519  0.69522520     0.12600
H2863       H  0.16243068  0.80714632  0.67768326     0.13200
H2864       H  0.11384830  0.80760467  0.70210099     0.15100
C2865       C  0.20358210  0.89245814  0.78953506    -0.04900
C2866       C  0.21221894  0.90617634  0.79688312    -0.04800
C2867       C  0.22355684  0.90361645  0.81021820    -0.23000
C2868       C  0.22647198  0.88727426  0.81649640     0.19200
C2869       C  0.21825970  0.87340794  0.80877383     0.16400
C2870       C  0.20700204  0.87606606  0.79539307    -0.18000
C2871       C  0.22100347  0.85706274  0.81486512    -0.19900
C2872       C  0.23133259  0.85442843  0.82880051    -0.12400
C2873       C  0.23928422  0.86803290  0.83700957     0.04200
C2874       C  0.23703659  0.88451320  0.83057491    -0.24600
H2875       H  0.20980942  0.91895569  0.79267769     0.09300
H2876       H  0.22973195  0.91445326  0.81586891     0.12900
H2877       H  0.20048161  0.86535140  0.78988362     0.12900
H2878       H  0.21487227  0.84628931  0.80904855     0.12600
H2879       H  0.23287484  0.84162251  0.83333431     0.13200
H2880       H  0.24306736  0.89514684  0.83675304     0.15100
C2881       C  0.12554382  0.92630376  0.79047424    -0.04900
C2882       C  0.12363272  0.92078827  0.80724400    -0.04800
C2883       C  0.11709938  0.93161103  0.81961290    -0.23000
C2884       C  0.11251398  0.94820906  0.81546353     0.19200
C2885       C  0.11348710  0.95352463  0.79845602     0.16400
C2886       C  0.11979924  0.94250595  0.78607464    -0.18000
C2887       C  0.10904365  0.97010713  0.79424339    -0.19900
C2888       C  0.10465691  0.98163368  0.80685312    -0.12400
C2889       C  0.10453971  0.97682298  0.82394001     0.04200
C2890       C  0.10791149  0.95985930  0.82810381    -0.24600
H2891       H  0.12791535  0.90837001  0.81097161     0.09300
H2892       H  0.11633741  0.92724188  0.83255280     0.12900
H2893       H  0.12118812  0.94694813  0.77320004     0.12900
H2894       H  0.10964393  0.97437733  0.78126090     0.12600
H2895       H  0.10212785  0.99457623  0.80326229     0.13200
H2896       H  0.10791306  0.95596978  0.84122133     0.15100
C2897       C  0.06555394  0.96746998  0.61984728    -0.04900
C2898       C  0.06443747  0.96360024  0.60254762    -0.04800
C2899       C  0.05412248  0.95049954  0.59683216    -0.23000
C2900       C  0.04474998  0.94082373  0.60830254     0.19200
C2901       C  0.04505503  0.94501018  0.62566062     0.16400
C2902       C  0.05535597  0.95845015  0.63134483    -0.18000
C2903       C  0.03557432  0.93521603  0.63704344    -0.19900
C2904       C  0.02650701  0.92106150  0.63138939    -0.12400
C2905       C  0.02669350  0.91643741  0.61424338     0.04200
C2906       C  0.03556841  0.92667330  0.60272239    -0.24600
H2907       H  0.07197983  0.97042908  0.59338437     0.09300
H2908       H  0.05391470  0.94758535  0.58346647     0.12900
H2909       H  0.05608193  0.96128592  0.64470832     0.12900
H2910       H  0.03551271  0.93823837  0.65038082     0.12600
H2911       H  0.01966626  0.91349128  0.64051788     0.13200
H2912       H  0.03572664  0.92337427  0.58943755     0.15100
C2913       C  0.16275991  0.93569073  0.71282556    -0.04900
C2914       C  0.16483283  0.95301358  0.71621146    -0.04800
C2915       C  0.16077144  0.96514960  0.70406721    -0.23000
C2916       C  0.15459174  0.96022102  0.68823640     0.19200
C2917       C  0.15360528  0.94284928  0.68419920     0.16400
C2918       C  0.15772247  0.93067745  0.69650497    -0.18000
C2919       C  0.14760527  0.93798321  0.66825433    -0.19900
C2920       C  0.14152651  0.95010608  0.65692376    -0.12400
C2921       C  0.14129914  0.96732606  0.66131085     0.04200
C2922       C  0.14848742  0.97232461  0.67678177    -0.24600
H2923       H  0.16873442  0.95725050  0.72860237     0.09300
H2924       H  0.16178796  0.97841176  0.70732801     0.12900
H2925       H  0.15615574  0.91736254  0.69365970     0.12900
H2926       H  0.14691509  0.92474084  0.66483104     0.12600
H2927       H  0.13610259  0.94588757  0.64511952     0.13200
H2928       H  0.14849183  0.98555857  0.68032317     0.15100
C2929       C  0.14632399  0.17002066  0.76592175    -0.04900
C2930       C  0.13106902  0.17858865  0.76342333    -0.04800
C2931       C  0.12683660  0.19262305  0.77338456    -0.23000
C2932       C  0.13769896  0.19826693  0.78618065     0.19200
C2933       C  0.15311660  0.18979021  0.78867755     0.16400
C2934       C  0.15737320  0.17589537  0.77848962    -0.18000
C2935       C  0.16389119  0.19506580  0.80161708    -0.19900
C2936       C  0.15929805  0.20831339  0.81228202    -0.12400
C2937       C  0.14395883  0.21680903  0.81013101     0.04200
C2938       C  0.13328543  0.21190931  0.79680456    -0.24600
H2939       H  0.12229643  0.17430981  0.75388738     0.09300
H2940       H  0.11493472  0.19887670  0.77126702     0.12900
H2941       H  0.16912671  0.16936778  0.78068246     0.12900
H2942       H  0.17575099  0.18871845  0.80371917     0.12600
H2943       H  0.16775955  0.21184628  0.82239055     0.13200
H2944       H  0.12134725  0.21824176  0.79512118     0.15100
C2945       C  0.15052779  0.09501669  0.78756682    -0.04900
C2946       C  0.13848478  0.10177289  0.79868172    -0.04800
C2947       C  0.13339866  0.09290983  0.81302727    -0.23000
C2948       C  0.14006111  0.07694209  0.81644611     0.19200
C2949       C  0.15257166  0.07016046  0.80569438     0.16400
C2950       C  0.15794052  0.07937440  0.79140242    -0.18000
C2951       C  0.15889270  0.05397496  0.80904465    -0.19900
C2952       C  0.15232657  0.04433817  0.82238589    -0.12400
C2953       C  0.13948306  0.05078906  0.83276084     0.04200
C2954       C  0.13378939  0.06734339  0.82998138    -0.24600
H2955       H  0.13270071  0.11386128  0.79608060     0.09300
H2956       H  0.12383667  0.09831739  0.82114717     0.12900
H2957       H  0.16715680  0.07401280  0.78285494     0.12900
H2958       H  0.16846474  0.04851974  0.80097757     0.12600
H2959       H  0.15684602  0.03157704  0.82416871     0.13200
H2960       H  0.12378126  0.07244254  0.83776658     0.15100
C2961       C  0.10472542  0.04287195  0.67136225    -0.04900
C2962       C  0.10220625  0.03908621  0.68850644    -0.04800
C2963       C  0.10686729  0.05070975  0.70101376    -0.23000
C2964       C  0.11394309  0.06638788  0.69656071     0.19200
C2965       C  0.11529342  0.07081803  0.67932862     0.16400
C2966       C  0.11074760  0.05901831  0.66686008    -0.18000
C2967       C  0.12195614  0.08665724  0.67485397    -0.19900
C2968       C  0.12803488  0.09765665  0.68727926    -0.12400
C2969       C  0.12782029  0.09289587  0.70434625     0.04200
C2970       C  0.12038697  0.07738110  0.70895699    -0.24600
H2971       H  0.09764389  0.02673051  0.69227673     0.09300
H2972       H  0.10554478  0.04717367  0.71416311     0.12900
H2973       H  0.11263392  0.06210949  0.65365401     0.12900
H2974       H  0.12295683  0.09031914  0.66171043     0.12600
H2975       H  0.13375165  0.10951084  0.68346026     0.13200
H2976       H  0.12007871  0.07367055  0.72212702     0.15100
C2977       C  0.60018287  0.62484794  0.98183281    -0.04900
C2978       C  0.59365743  0.64119971  0.98420692    -0.04800
C2979       C  0.57931421  0.64644648  0.97538659    -0.23000
C2980       C  0.57125220  0.63559728  0.96394222     0.19200
C2981       C  0.57757806  0.61906082  0.96166764     0.16400
C2982       C  0.59187505  0.61379608  0.97066470    -0.18000
C2983       C  0.56974248  0.60819544  0.95012204    -0.19900
C2984       C  0.55620997  0.61380871  0.94043925    -0.12400
C2985       C  0.54998880  0.63033676  0.94221877     0.04200
C2986       C  0.55732996  0.64108478  0.95435118    -0.24600
H2987       H  0.59964078  0.64983608  0.99265018     0.09300
H2988       H  0.57465938  0.65927747  0.97737502     0.12900
H2989       H  0.59673565  0.60110187  0.96869094     0.12900
H2990       H  0.57434397  0.59546417  0.94825249     0.12600
H2991       H  0.55076291  0.60525578  0.93130568     0.13200
H2992       H  0.55274844  0.65385210  0.95577711     0.15100
C2993       C  0.62375789  0.52742736  0.09141557    -0.04900
C2994       C  0.64057915  0.52684450  0.08589387    -0.04800
C2995       C  0.64594820  0.53648014  0.07202663    -0.23000
C2996       C  0.63462113  0.54698204  0.06347514     0.19200
C2997       C  0.61759805  0.54733042  0.06868451     0.16400
C2998       C  0.61226348  0.53746312  0.08246006    -0.18000
C2999       C  0.60627779  0.55799192  0.06040319    -0.19900
C3000       C  0.61184131  0.56861765  0.04744544    -0.12400
C3001       C  0.62877906  0.56863444  0.04227603     0.04200
C3002       C  0.64008458  0.55751663  0.05017022    -0.24600
H3003       H  0.64970303  0.51925343  0.09256189     0.09300
H3004       H  0.65904912  0.53602164  0.06824795     0.12900
H3005       H  0.59926141  0.53808451  0.08657231     0.12900
H3006       H  0.59318610  0.55842411  0.06422392     0.12600
H3007       H  0.60288220  0.57704242  0.04159424     0.13200
H3008       H  0.65321281  0.55754629  0.04643315     0.15100
C3009       C  0.77613160  0.64503154  0.84139622    -0.04900
C3010       C  0.77754241  0.62816265  0.83600931    -0.04800
C3011       C  0.78767050  0.62394765  0.82215462    -0.23000
C3012       C  0.79664844  0.63651391  0.81341637     0.19200
C3013       C  0.79504548  0.65357009  0.81847411     0.16400
C3014       C  0.78477721  0.65772026  0.83235921    -0.18000
C3015       C  0.80415226  0.66613098  0.80987952    -0.19900
C3016       C  0.81530750  0.66176934  0.79692348    -0.12400
C3017       C  0.81741153  0.64479618  0.79210840     0.04200
C3018       C  0.80766070  0.63225411  0.80012925    -0.24600
H3019       H  0.77105612  0.61814242  0.84272518     0.09300
H3020       H  0.78873918  0.61080420  0.81848554     0.12900
H3021       H  0.78383120  0.67078652  0.83635290     0.12900
H3022       H  0.80304190  0.67928183  0.81351904     0.12600
H3023       H  0.82265319  0.67167116  0.79094806     0.13200
H3024       H  0.80929049  0.61911175  0.79665372     0.15100
C3025       C  0.71222227  0.69799635  0.87803228    -0.04900
C3026       C  0.71172652  0.71323633  0.88717255    -0.04800
C3027       C  0.69878973  0.72499084  0.88448617    -0.23000
C3028       C  0.68610710  0.72178316  0.87254378     0.19200
C3029       C  0.68665809  0.70657898  0.86318671     0.16400
C3030       C  0.69959959  0.69485963  0.86598987    -0.18000
C3031       C  0.67420747  0.70324564  0.85116707    -0.19900
C3032       C  0.66133272  0.71482718  0.84834334    -0.12400
C3033       C  0.66043898  0.73003826  0.85751493     0.04200
C3034       C  0.67291885  0.73342351  0.86973210    -0.24600
H3035       H  0.72122465  0.71597477  0.89656505     0.09300
H3036       H  0.69867425  0.73655850  0.89180097     0.12900
H3037       H  0.69976123  0.68319415  0.85881116     0.12900
H3038       H  0.67442873  0.69165069  0.84388800     0.12600
H3039       H  0.65195522  0.71178177  0.83891697     0.13200
H3040       H  0.67246088  0.74508614  0.87688637     0.15100
C3041       C  0.68461436  0.60183794  0.96845678    -0.04900
C3042       C  0.70157123  0.60263030  0.97340446    -0.04800
C3043       C  0.71411980  0.60719608  0.96180529    -0.23000
C3044       C  0.70993575  0.61094965  0.94502334     0.19200
C3045       C  0.69314142  0.60880250  0.93959848     0.16400
C3046       C  0.68060436  0.60423000  0.95132920    -0.18000
C3047       C  0.68898293  0.61230365  0.92276575    -0.19900
C3048       C  0.70105306  0.61900019  0.91172100    -0.12400
C3049       C  0.71747313  0.62241123  0.91731981     0.04200
C3050       C  0.72199895  0.61774866  0.93385702    -0.24600
H3051       H  0.70500482  0.60085823  0.98650144     0.09300
H3052       H  0.72696266  0.60857880  0.96616011     0.12900
H3053       H  0.66758632  0.60356406  0.94733160     0.12900
H3054       H  0.67620910  0.61056717  0.91833633     0.12600
H3055       H  0.69725399  0.62243568  0.89906758     0.13200
H3056       H  0.73466284  0.62020856  0.93830268     0.15100
C3057       C  0.88242115  0.56487383  0.95439648    -0.04900
C3058       C  0.87096441  0.55184063  0.95054526    -0.04800
C3059       C  0.87450043  0.54018988  0.93762251    -0.23000
C3060       C  0.88959898  0.54132023  0.92838155     0.19200
C3061       C  0.90139028  0.55403950  0.93264174     0.16400
C3062       C  0.89771787  0.56568279  0.94547421    -0.18000
C3063       C  0.91658669  0.55520518  0.92377164    -0.19900
C3064       C  0.91990418  0.54428447  0.91039249    -0.12400
C3065       C  0.90805515  0.53201520  0.90539132     0.04200
C3066       C  0.89298006  0.53034668  0.91470490    -0.24600
H3067       H  0.85908646  0.55092877  0.95721448     0.09300
H3068       H  0.86530504  0.53049302  0.93466765     0.12900
H3069       H  0.90673527  0.57559097  0.94833474     0.12900
H3070       H  0.92580562  0.56480917  0.92696363     0.12600
H3071       H  0.93162483  0.54588543  0.90355832     0.13200
H3072       H  0.88375780  0.52091450  0.91105214     0.15100
C3073       C  0.84327280  0.63953063  0.95418608    -0.04900
C3074       C  0.84757711  0.63969985  0.93696289    -0.04800
C3075       C  0.83609093  0.64544463  0.92488604    -0.23000
C3076       C  0.82012480  0.65118104  0.92983793     0.19200
C3077       C  0.81611922  0.65212122  0.94719933     0.16400
C3078       C  0.82769048  0.64629594  0.95922792    -0.18000
C3079       C  0.80026425  0.65806455  0.95220672    -0.19900
C3080       C  0.78813111  0.66211952  0.94013206    -0.12400
C3081       C  0.79157075  0.66015347  0.92284592     0.04200
C3082       C  0.80780354  0.65515408  0.91776234    -0.24600
H3083       H  0.85945142  0.63451336  0.93274069     0.09300
H3084       H  0.83944791  0.64477330  0.91163676     0.12900
H3085       H  0.82423392  0.64629671  0.97247603     0.12900
H3086       H  0.79702349  0.65897298  0.96546947     0.12600
H3087       H  0.77571955  0.66585179  0.94435549     0.13200
H3088       H  0.81060426  0.65365212  0.90444586     0.15100
C3089       C  0.74589853  0.64970321  0.16020304    -0.04900
C3090       C  0.74766904  0.63357124  0.16741363    -0.04800
C3091       C  0.73819298  0.62885201  0.18161917    -0.23000
C3092       C  0.72666079  0.64013637  0.18886552     0.19200
C3093       C  0.72517498  0.65657240  0.18204981     0.16400
C3094       C  0.73485693  0.66127812  0.16789022    -0.18000
C3095       C  0.71353889  0.66782856  0.18909622    -0.19900
C3096       C  0.70290564  0.66262008  0.20220405    -0.12400
C3097       C  0.70381882  0.64613209  0.20875795     0.04200
C3098       C  0.71611437  0.63507414  0.20232998    -0.24600
H3099       H  0.75605734  0.62440256  0.16178294     0.09300
H3100       H  0.73955455  0.61620504  0.18665033     0.12900
H3101       H  0.73332069  0.67376080  0.16249440     0.12900
H3102       H  0.71226664  0.68050231  0.18409874     0.12600
H3103       H  0.69361353  0.67140950  0.20694510     0.13200
H3104       H  0.71686526  0.62228862  0.20716240     0.15100
C3105       C  0.67573405  0.64191225  0.04055692    -0.04900
C3106       C  0.68617522  0.65463895  0.03381096    -0.04800
C3107       C  0.69908831  0.66183628  0.04351745    -0.23000
C3108       C  0.70195295  0.65628636  0.06009324     0.19200
C3109       C  0.69103270  0.64404009  0.06721326     0.16400
C3110       C  0.67792441  0.63712040  0.05751159    -0.18000
C3111       C  0.69393228  0.63821621  0.08363313    -0.19900
C3112       C  0.70805879  0.64368020  0.09255694    -0.12400
C3113       C  0.71948202  0.65528174  0.08539519     0.04200
C3114       C  0.71601395  0.66204724  0.06934499    -0.24600
H3115       H  0.68479802  0.65855738  0.02079658     0.09300
H3116       H  0.70725797  0.67124568  0.03782027     0.12900
H3117       H  0.67002917  0.62728632  0.06290113     0.12900
H3118       H  0.68564569  0.62890301  0.08933229     0.12600
H3119       H  0.71034219  0.63838777  0.10494321     0.13200
H3120       H  0.72476583  0.67093020  0.06365826     0.15100
C3121       C  0.83437240  0.60671763  0.03036597    -0.04900
C3122       C  0.81723835  0.60559623  0.02623936    -0.04800
C3123       C  0.80490732  0.61062822  0.03783845    -0.23000
C3124       C  0.80950468  0.61660866  0.05387141     0.19200
C3125       C  0.82664014  0.61656205  0.05858770     0.16400
C3126       C  0.83897188  0.61176889  0.04675962    -0.18000
C3127       C  0.83119934  0.62206942  0.07478740    -0.19900
C3128       C  0.81903953  0.62845211  0.08586866    -0.12400
C3129       C  0.80214633  0.62967997  0.08087958     0.04200
C3130       C  0.79738683  0.62331036  0.06498047    -0.24600
H3131       H  0.81342343  0.60184373  0.01366512     0.09300
H3132       H  0.79182268  0.61040117  0.03405420     0.12900
H3133       H  0.85217495  0.61260026  0.05007409     0.12900
H3134       H  0.84424776  0.62194774  0.07869570     0.12600
H3135       H  0.82301056  0.63326424  0.09802779     0.13200
H3136       H  0.78435978  0.62406510  0.06105192     0.15100
C3137       C  0.16503737  0.23870390  0.35342048    -0.04900
C3138       C  0.16489361  0.22295559  0.34521197    -0.04800
C3139       C  0.17813098  0.21168286  0.34710540    -0.23000
C3140       C  0.19194240  0.21592347  0.35715846     0.19200
C3141       C  0.19245088  0.23170468  0.36551228     0.16400
C3142       C  0.17888208  0.24303197  0.36368583    -0.18000
C3143       C  0.20650683  0.23572724  0.37551291    -0.19900
C3144       C  0.21969498  0.22410451  0.37739604    -0.12400
C3145       C  0.21904033  0.20828139  0.36930554     0.04200
C3146       C  0.20514803  0.20444435  0.35906614    -0.24600
H3147       H  0.15440563  0.21924025  0.33732069     0.09300
H3148       H  0.17755500  0.19960901  0.34066754     0.12900
H3149       H  0.17917053  0.25516070  0.37004056     0.12900
H3150       H  0.20721285  0.24775424  0.38201830     0.12600
H3151       H  0.23020544  0.22733723  0.38545862     0.13200
H3152       H  0.20441587  0.19230332  0.35275722     0.15100
C3153       C  0.10005347  0.12104878  0.47548809    -0.04900
C3154       C  0.08956470  0.13380565  0.48191098    -0.04800
C3155       C  0.07521727  0.13894914  0.47301592    -0.23000
C3156       C  0.07116167  0.13158384  0.45739507     0.19200
C3157       C  0.08161980  0.11871585  0.45087374     0.16400
C3158       C  0.09585950  0.11348730  0.45995733    -0.18000
C3159       C  0.07783161  0.11142834  0.43522139    -0.19900
C3160       C  0.06408629  0.11707606  0.42589248    -0.12400
C3161       C  0.05364966  0.13004238  0.43200695     0.04200
C3162       C  0.05710141  0.13706717  0.44799977    -0.24600
H3163       H  0.09245032  0.13981322  0.49384376     0.09300
H3164       H  0.06740198  0.14883069  0.47827217     0.12900
H3165       H  0.10383494  0.10368242  0.45477122     0.12900
H3166       H  0.08567394  0.10152303  0.43003925     0.12600
H3167       H  0.06171946  0.11134710  0.41370402     0.13200
H3168       H  0.04921807  0.14710012  0.45286419     0.15100
C3169       C  0.11424315  0.03204278  0.58871699    -0.04900
C3170       C  0.10202508  0.04435189  0.58515557    -0.04800
C3171       C  0.10349986  0.05481069  0.57101549    -0.23000
C3172       C  0.11717987  0.05315464  0.55996084     0.19200
C3173       C  0.12938689  0.04060208  0.56307208     0.16400
C3174       C  0.12792824  0.03019189  0.57751051    -0.18000
C3175       C  0.14292137  0.03886647  0.55176889    -0.19900
C3176       C  0.14464060  0.04979329  0.53790962    -0.12400
C3177       C  0.13295320  0.06278189  0.53513097     0.04200
C3178       C  0.11904466  0.06413529  0.54609166    -0.24600
H3179       H  0.09133315  0.04607873  0.59347511     0.09300
H3180       H  0.09398062  0.06430939  0.56880925     0.12900
H3181       H  0.13738395  0.02069974  0.57999845     0.12900
H3182       H  0.15237692  0.02927865  0.55383501     0.12600
H3183       H  0.15552908  0.04852865  0.52976854     0.13200
H3184       H  0.10990620  0.07406399  0.54411902     0.15100
C3185       C  0.18119329  0.11390218  0.45966172    -0.04900
C3186       C  0.18590098  0.10211344  0.44723798    -0.04800
C3187       C  0.19637658  0.10699633  0.43370753    -0.23000
C3188       C  0.20229406  0.12374750  0.43238342     0.19200
C3189       C  0.19764925  0.13552278  0.44495796     0.16400
C3190       C  0.18728633  0.13055081  0.45838827    -0.18000
C3191       C  0.20336397  0.15221667  0.44397800    -0.19900
C3192       C  0.21376631  0.15728890  0.43076777    -0.12400
C3193       C  0.21870768  0.14585364  0.41811354     0.04200
C3194       C  0.21278448  0.12901576  0.41888145    -0.24600
H3195       H  0.18137265  0.08920470  0.44789824     0.09300
H3196       H  0.19977891  0.09770871  0.42426053     0.12900
H3197       H  0.18382993  0.13983266  0.46783899     0.12900
H3198       H  0.19984527  0.16138820  0.45350610     0.12600
H3199       H  0.21799077  0.17031952  0.43050289     0.13200
H3200       H  0.21652130  0.12005596  0.40924197     0.15100
C3201       C  0.23607153  0.15383200  0.65785670    -0.04900
C3202       C  0.22421217  0.16627800  0.66214552    -0.04800
C3203       C  0.21316789  0.16400847  0.67564862    -0.23000
C3204       C  0.21364178  0.14919903  0.68525289     0.19200
C3205       C  0.22571469  0.13666907  0.68152737     0.16400
C3206       C  0.23692065  0.13905103  0.66780153    -0.18000
C3207       C  0.22602556  0.12189525  0.69140354    -0.19900
C3208       C  0.21414070  0.11936836  0.70436362    -0.12400
C3209       C  0.20171444  0.13154356  0.70763479     0.04200
C3210       C  0.20185452  0.14659214  0.69821503    -0.24600
H3211       H  0.22324486  0.17779946  0.65484742     0.09300
H3212       H  0.20402897  0.17376039  0.67839428     0.12900
H3213       H  0.24598409  0.12934168  0.66468445     0.12900
H3214       H  0.23520729  0.11213798  0.68886598     0.12600
H3215       H  0.21430176  0.10765194  0.71141584     0.13200
H3216       H  0.19243414  0.15616336  0.70065510     0.15100
C3217       C  0.22368376  0.15515980  0.57593238    -0.04900
C3218       C  0.21401494  0.16790665  0.56833728    -0.04800
C3219       C  0.20058541  0.16368502  0.55753863    -0.23000
C3220       C  0.19659840  0.14664859  0.55419728     0.19200
C3221       C  0.20626903  0.13389564  0.56195761     0.16400
C3222       C  0.21960736  0.13820060  0.57262328    -0.18000
C3223       C  0.20261299  0.11689442  0.55890159    -0.19900
C3224       C  0.18974507  0.11241550  0.54793192    -0.12400
C3225       C  0.18011816  0.12477931  0.53971647     0.04200
C3226       C  0.18340475  0.14201014  0.54311130    -0.24600
H3227       H  0.21683944  0.18109000  0.57072636     0.09300
H3228       H  0.19337736  0.17371896  0.55177257     0.12900
H3229       H  0.22685511  0.12818442  0.57840011     0.12900
H3230       H  0.20987842  0.10699567  0.56484133     0.12600
H3231       H  0.18747825  0.09909332  0.54570045     0.13200
H3232       H  0.17613604  0.15167815  0.53681366     0.15100
C3233       C  0.30519928  0.14136661  0.58106356    -0.04900
C3234       C  0.31745866  0.15296646  0.57550506    -0.04800
C3235       C  0.32872221  0.14875142  0.56271593    -0.23000
C3236       C  0.32791486  0.13284240  0.55507085     0.19200
C3237       C  0.31616931  0.12069646  0.56093952     0.16400
C3238       C  0.30491947  0.12497786  0.57410478    -0.18000
C3239       C  0.31555720  0.10477538  0.55306990    -0.19900
C3240       C  0.32618221  0.10113069  0.53934685    -0.12400
C3241       C  0.33754518  0.11336224  0.53322142     0.04200
C3242       C  0.33842380  0.12912333  0.54134336    -0.24600
H3243       H  0.31798180  0.16561665  0.58072542     0.09300
H3244       H  0.33773665  0.15814942  0.55844719     0.12900
H3245       H  0.29541841  0.11599520  0.57819934     0.12900
H3246       H  0.30669016  0.09524887  0.55734331     0.12600
H3247       H  0.32528710  0.08887382  0.53332749     0.13200
H3248       H  0.34719675  0.13865614  0.53684858     0.15100
C3249       C  0.33809262  0.12825194  0.45041094    -0.04900
C3250       C  0.32941168  0.11601105  0.44093672    -0.04800
C3251       C  0.31776546  0.12065585  0.42881403    -0.23000
C3252       C  0.31433161  0.13769721  0.42598140     0.19200
C3253       C  0.32311797  0.15033517  0.43504488     0.16400
C3254       C  0.33522367  0.14552775  0.44716780    -0.18000
C3255       C  0.31918256  0.16740544  0.43207861    -0.19900
C3256       C  0.30636171  0.17175205  0.42068088    -0.12400
C3257       C  0.29742653  0.15909287  0.41198347     0.04200
C3258       C  0.30181679  0.14213691  0.41451087    -0.24600
H3259       H  0.33151893  0.10265904  0.44303068     0.09300
H3260       H  0.31115011  0.11085587  0.42190701     0.12900
H3261       H  0.34181269  0.15506120  0.45445139     0.12900
H3262       H  0.32573508  0.17734351  0.43882951     0.12600
H3263       H  0.30323005  0.18493477  0.41891971     0.13200
H3264       H  0.29510846  0.13219781  0.40788202     0.15100
C3265       C  0.40156885  0.03608094  0.39999229    -0.04900
C3266       C  0.41166328  0.05053124  0.40220767    -0.04800
C3267       C  0.40937774  0.06112288  0.41606365    -0.23000
C3268       C  0.39703285  0.05743352  0.42815214     0.19200
C3269       C  0.38700669  0.04273703  0.42644279     0.16400
C3270       C  0.38925218  0.03214940  0.41225328    -0.18000
C3271       C  0.37477671  0.03915898  0.43882153    -0.19900
C3272       C  0.37215884  0.05033870  0.45236121    -0.12400
C3273       C  0.38172284  0.06527477  0.45373949     0.04200
C3274       C  0.39436141  0.06849430  0.44170622    -0.24600
H3275       H  0.42116769  0.05389731  0.39296086     0.09300
H3276       H  0.41716913  0.07233505  0.41721737     0.12900
H3277       H  0.38145023  0.02098817  0.41072553     0.12900
H3278       H  0.36701761  0.02791062  0.43785185     0.12600
H3279       H  0.36233323  0.04755713  0.46145507     0.13200
H3280       H  0.40191590  0.07989809  0.44262790     0.15100
C3281       C  0.31289560  0.89230440  0.20357284    -0.04900
C3282       C  0.30004712  0.90390131  0.19995187    -0.04800
C3283       C  0.28906541  0.90111878  0.18636217    -0.23000
C3284       C  0.29078876  0.88672183  0.17610186     0.19200
C3285       C  0.30328837  0.87473444  0.18009376     0.16400
C3286       C  0.31411257  0.87753222  0.19378352    -0.18000
C3287       C  0.30514444  0.86032165  0.17003461    -0.19900
C3288       C  0.29500858  0.85792372  0.15589284    -0.12400
C3289       C  0.28273996  0.86985566  0.15141730     0.04200
C3290       C  0.28054916  0.88421982  0.16174937    -0.24600
H3291       H  0.29881675  0.91537801  0.20729223     0.09300
H3292       H  0.27950764  0.91043083  0.18362760     0.12900
H3293       H  0.32390068  0.86842302  0.19643848     0.12900
H3294       H  0.31463263  0.85098667  0.17295594     0.12600
H3295       H  0.29696224  0.84672236  0.14829162     0.13200
H3296       H  0.27107628  0.89347492  0.15854387     0.15100
C3297       C  0.37307367  0.97527750  0.32743279    -0.04900
C3298       C  0.37146656  0.95842356  0.33280569    -0.04800
C3299       C  0.36466794  0.94614718  0.32208682    -0.23000
C3300       C  0.35935226  0.95052925  0.30581071     0.19200
C3301       C  0.35967121  0.96765203  0.30076280     0.16400
C3302       C  0.36646386  0.97993711  0.31163981    -0.18000
C3303       C  0.35421484  0.97201598  0.28450770    -0.19900
C3304       C  0.34976023  0.95942074  0.27292612    -0.12400
C3305       C  0.35072144  0.94229279  0.27742383     0.04200
C3306       C  0.35479933  0.93797696  0.29414251    -0.24600
H3307       H  0.37640714  0.95451580  0.34490874     0.09300
H3308       H  0.36434417  0.93309790  0.32622192     0.12900
H3309       H  0.36753690  0.99291963  0.30739079     0.12900
H3310       H  0.35420381  0.98509708  0.28047577     0.12600
H3311       H  0.34662936  0.96304034  0.26013786     0.13200
H3312       H  0.35544059  0.92478751  0.29778308     0.15100
C3313       C  0.39793260  0.99156783  0.08390528    -0.04900
C3314       C  0.41134812  0.98093076  0.07934814    -0.04800
C3315       C  0.40963282  0.96909461  0.06636992    -0.23000
C3316       C  0.39448617  0.96766952  0.05748847     0.19200
C3317       C  0.38103584  0.97861933  0.06146621     0.16400
C3318       C  0.38280241  0.99047424  0.07470367    -0.18000
C3319       C  0.36598897  0.97728030  0.05229647    -0.19900
C3320       C  0.36420404  0.96506214  0.03957431    -0.12400
C3321       C  0.37735252  0.95381263  0.03586196     0.04200
C3322       C  0.39252775  0.95530741  0.04485806    -0.24600
H3323       H  0.42314237  0.98143893  0.08613976     0.09300
H3324       H  0.42011649  0.96088634  0.06343228     0.12900
H3325       H  0.37235538  0.99859014  0.07801401     0.12900
H3326       H  0.35553053  0.98556898  0.05507479     0.12600
H3327       H  0.35236804  0.96415677  0.03289587     0.13200
H3328       H  0.40280527  0.94676690  0.04211095     0.15100
C3329       C  0.44303355  0.05853908  0.11787890    -0.04900
C3330       C  0.44059512  0.06730790  0.10264642    -0.04800
C3331       C  0.45140268  0.08029577  0.09775141    -0.23000
C3332       C  0.46493320  0.08494479  0.10799748     0.19200
C3333       C  0.46761769  0.07646203  0.12345322     0.16400
C3334       C  0.45665143  0.06318405  0.12831628    -0.18000
C3335       C  0.48118653  0.08151659  0.13366839    -0.19900
C3336       C  0.49198150  0.09467781  0.12850921    -0.12400
C3337       C  0.48943134  0.10296526  0.11302606     0.04200
C3338       C  0.47578752  0.09799461  0.10291862    -0.24600
H3339       H  0.43023535  0.06410808  0.09437462     0.09300
H3340       H  0.44914545  0.08673029  0.08590399     0.12900
H3341       H  0.45856974  0.05667820  0.14018464     0.12900
H3342       H  0.48345926  0.07529640  0.14561784     0.12600
H3343       H  0.50233085  0.09834223  0.13659885     0.13200
H3344       H  0.47352421  0.10434660  0.09102054     0.15100
C3345       C  0.38964887  0.93064846  0.20505160    -0.04900
C3346       C  0.40205990  0.94166433  0.21139892    -0.04800
C3347       C  0.40860650  0.95475905  0.20132500    -0.23000
C3348       C  0.40256425  0.95729163  0.18486307     0.19200
C3349       C  0.39080449  0.94564463  0.17814568     0.16400
C3350       C  0.38477580  0.93224916  0.18809352    -0.18000
C3351       C  0.38431133  0.94819371  0.16196222    -0.19900
C3352       C  0.38856918  0.96266929  0.15288101    -0.12400
C3353       C  0.39971706  0.97476363  0.15955754     0.04200
C3354       C  0.40722415  0.97171090  0.17535993    -0.24600
H3355       H  0.40607044  0.94070357  0.22441286     0.09300
H3356       H  0.41769808  0.96343585  0.20672324     0.12900
H3357       H  0.37521136  0.92388768  0.18299750     0.12900
H3358       H  0.37533788  0.93935848  0.15660659     0.12600
H3359       H  0.38279177  0.96460871  0.14067092     0.13200
H3360       H  0.41578709  0.98098386  0.18065534     0.15100
C3361       C  0.38427386  0.21999272  0.18069883    -0.04900
C3362       C  0.36699506  0.21700191  0.18315161    -0.04800
C3363       C  0.36141031  0.20466077  0.19444395    -0.23000
C3364       C  0.37300484  0.19489766  0.20339531     0.19200
C3365       C  0.39042963  0.19801293  0.20140076     0.16400
C3366       C  0.39597611  0.21067830  0.19016276    -0.18000
C3367       C  0.40195981  0.18807721  0.21034113    -0.19900
C3368       C  0.39629057  0.17499088  0.22085467    -0.12400
C3369       C  0.37900010  0.17161190  0.22262873     0.04200
C3370       C  0.36742683  0.18180003  0.21398392    -0.24600
H3371       H  0.35773534  0.22405330  0.17608411     0.09300
H3372       H  0.34801238  0.20249310  0.19587986     0.12900
H3373       H  0.40933347  0.21281001  0.18829864     0.12900
H3374       H  0.41536409  0.19024476  0.20899555     0.12600
H3375       H  0.40545712  0.16730827  0.22735607     0.13200
H3376       H  0.35404960  0.17935911  0.21524946     0.15100
C3377       C  0.27740002  0.15111481  0.33322240    -0.04900
C3378       C  0.27495676  0.13491059  0.32630896    -0.04800
C3379       C  0.28476486  0.12934168  0.31263055    -0.23000
C3380       C  0.29720208  0.13988333  0.30556222     0.19200
C3381       C  0.29939978  0.15634658  0.31216036     0.16400
C3382       C  0.28954294  0.16182446  0.32585146    -0.18000
C3383       C  0.31167565  0.16701546  0.30519837    -0.19900
C3384       C  0.32196923  0.16137060  0.29208461    -0.12400
C3385       C  0.32032866  0.14489109  0.28558737     0.04200
C3386       C  0.30770496  0.13421440  0.29229184    -0.24600
H3387       H  0.26571932  0.12638347  0.33172709     0.09300
H3388       H  0.28279715  0.11669482  0.30775932     0.12900
H3389       H  0.29160143  0.17436040  0.33099493     0.12900
H3390       H  0.31350619  0.17968670  0.31007264     0.12600
H3391       H  0.33154047  0.16988941  0.28726185     0.13200
H3392       H  0.30631505  0.12146010  0.28749091     0.15100
C3393       C  0.37375228  0.05692136  0.15962346    -0.04900
C3394       C  0.37113373  0.07354170  0.15399314    -0.04800
C3395       C  0.36535253  0.08599294  0.16521293    -0.23000
C3396       C  0.36195995  0.08194697  0.18218006     0.19200
C3397       C  0.36360734  0.06502341  0.18758395     0.16400
C3398       C  0.36954693  0.05270839  0.17633686    -0.18000
C3399       C  0.36002697  0.06077733  0.20438250    -0.19900
C3400       C  0.35579145  0.07330082  0.21603387    -0.12400
C3401       C  0.35518874  0.09035470  0.21117951     0.04200
C3402       C  0.35776818  0.09455418  0.19404089    -0.24600
H3403       H  0.37440307  0.07709383  0.14118987     0.09300
H3404       H  0.36407436  0.09887151  0.16077057     0.12900
H3405       H  0.37146959  0.03990010  0.18076813     0.12900
H3406       H  0.36111151  0.04782887  0.20867219     0.12600
H3407       H  0.35393753  0.06971318  0.22909962     0.13200
H3408       H  0.35733337  0.10766605  0.19011364     0.15100
C3409       C  0.39390351  0.10280857  0.28679232    -0.04900
C3410       C  0.39195526  0.10646484  0.30405675    -0.04800
C3411       C  0.39716885  0.09495759  0.31632150    -0.23000
C3412       C  0.40441536  0.07956277  0.31154403     0.19200
C3413       C  0.40775657  0.07636401  0.29430409     0.16400
C3414       C  0.40258957  0.08807693  0.28202152    -0.18000
C3415       C  0.41518241  0.06100057  0.28959726    -0.19900
C3416       C  0.41810274  0.04845320  0.30168385    -0.12400
C3417       C  0.41359478  0.05104225  0.31864899     0.04200
C3418       C  0.40738572  0.06691476  0.32359356    -0.24600
H3419       H  0.38543382  0.11775858  0.30809511     0.09300
H3420       H  0.39472778  0.09771992  0.32949942     0.12900
H3421       H  0.40426003  0.08513947  0.26875739     0.12900
H3422       H  0.41801060  0.05838073  0.27647009     0.12600
H3423       H  0.42298612  0.03637016  0.29758565     0.13200
H3424       H  0.40404021  0.06912220  0.33668717     0.15100
C3425       C  0.63142512  0.21359939  0.68913694    -0.04900
C3426       C  0.61980211  0.21076039  0.70225571    -0.04800
C3427       C  0.62220919  0.19758559  0.71383685    -0.23000
C3428       C  0.63637600  0.18710023  0.71260533     0.19200
C3429       C  0.64839391  0.19024964  0.69978095     0.16400
C3430       C  0.64582805  0.20338240  0.68815822    -0.18000
C3431       C  0.66267383  0.18002247  0.69856982    -0.19900
C3432       C  0.66494482  0.16661379  0.70975481    -0.12400
C3433       C  0.65294255  0.16300349  0.72234012     0.04200
C3434       C  0.63866088  0.17340816  0.72376951    -0.24600
H3435       H  0.60859125  0.21842042  0.70326844     0.09300
H3436       H  0.61287578  0.19545942  0.72360986     0.12900
H3437       H  0.65495426  0.20548300  0.67816928     0.12900
H3438       H  0.67203047  0.18228248  0.68884408     0.12600
H3439       H  0.67601492  0.15881355  0.70830214     0.13200
H3440       H  0.62932389  0.17079636  0.73343026     0.15100
C3441       C  0.59397322  0.29705516  0.64693027    -0.04900
C3442       C  0.60157594  0.31029117  0.63781257    -0.04800
C3443       C  0.59295664  0.32526675  0.63474350    -0.23000
C3444       C  0.57639786  0.32719037  0.64043835     0.19200
C3445       C  0.56879063  0.31430036  0.65024457     0.16400
C3446       C  0.57775424  0.29936254  0.65368887    -0.18000
C3447       C  0.55204132  0.31621048  0.65555134    -0.19900
C3448       C  0.54259372  0.33007939  0.65010920    -0.12400
C3449       C  0.54982422  0.34240751  0.63951439     0.04200
C3450       C  0.56699845  0.34127883  0.63546543    -0.24600
H3451       H  0.61413885  0.30889714  0.63267554     0.09300
H3452       H  0.59900001  0.33504808  0.62728147     0.12900
H3453       H  0.57177679  0.28920843  0.66069728     0.12900
H3454       H  0.54598441  0.30654541  0.66314422     0.12600
H3455       H  0.52937779  0.33064592  0.65341038     0.13200
H3456       H  0.57273729  0.35066366  0.62727691     0.15100
C3457       C  0.56575146  0.05005981  0.62271072    -0.04900
C3458       C  0.55303140  0.05330034  0.63464721    -0.04800
C3459       C  0.54143747  0.06641322  0.63205444    -0.23000
C3460       C  0.54226354  0.07642728  0.61740179     0.19200
C3461       C  0.55470684  0.07285783  0.60514384     0.16400
C3462       C  0.56631522  0.05983422  0.60789209    -0.18000
C3463       C  0.55556303  0.08252978  0.59037891    -0.19900
C3464       C  0.54439821  0.09581423  0.58781868    -0.12400
C3465       C  0.53215343  0.09988807  0.59999618     0.04200
C3466       C  0.53107745  0.09002727  0.61481015    -0.24600
H3467       H  0.55233578  0.04600466  0.64619014     0.09300
H3468       H  0.53196421  0.06884778  0.64159883     0.12900
H3469       H  0.57597733  0.05744361  0.59851289     0.12900
H3470       H  0.56499253  0.07991554  0.58083308     0.12600
H3471       H  0.54557917  0.10313030  0.57632107     0.13200
H3472       H  0.52167915  0.09297164  0.62428856     0.15100
C3473       C  0.41810134  0.11287512  0.51420056    -0.04900
C3474       C  0.42324776  0.09985551  0.52509378    -0.04800
C3475       C  0.43727694  0.10185877  0.53544758    -0.23000
C3476       C  0.44653553  0.11694596  0.53516658     0.19200
C3477       C  0.44207616  0.12988154  0.52374221     0.16400
C3478       C  0.42787694  0.12776145  0.51326033    -0.18000
C3479       C  0.45158424  0.14489750  0.52347309    -0.19900
C3480       C  0.46483842  0.14734540  0.53490481    -0.12400
C3481       C  0.46880141  0.13484935  0.54683872     0.04200
C3482       C  0.45980253  0.11949692  0.54657166    -0.24600
H3483       H  0.41612305  0.08818912  0.52598792     0.09300
H3484       H  0.44061791  0.09174820  0.54401071     0.12900
H3485       H  0.42414085  0.13786103  0.50485166     0.12900
H3486       H  0.44847684  0.15493898  0.51474805     0.12600
H3487       H  0.47155371  0.15928083  0.53484620     0.13200
H3488       H  0.46277091  0.10968994  0.55562729     0.15100
C3489       C  0.59058393  0.21743328  0.61477425    -0.04900
C3490       C  0.59657211  0.20171225  0.60920816    -0.04800
C3491       C  0.58564887  0.18999842  0.60166295    -0.23000
C3492       C  0.56858925  0.19390622  0.59933078     0.19200
C3493       C  0.56269036  0.21008330  0.60394775     0.16400
C3494       C  0.57367055  0.22166645  0.61176026    -0.18000
C3495       C  0.54573891  0.21414946  0.60129340    -0.19900
C3496       C  0.53450563  0.20200080  0.59506023    -0.12400
C3497       C  0.53995409  0.18550044  0.59150629     0.04200
C3498       C  0.55718199  0.18170327  0.59318718    -0.24600
H3499       H  0.60951558  0.19815785  0.61144086     0.09300
H3500       H  0.59044075  0.17770594  0.59809150     0.12900
H3501       H  0.56894934  0.23381728  0.61590926     0.12900
H3502       H  0.54103117  0.22654950  0.60460098     0.12600
H3503       H  0.52133742  0.20525824  0.59394573     0.13200
H3504       H  0.56157493  0.16904608  0.59044125     0.15100
C3505       C  0.35299610  0.23464207  0.64225987    -0.04900
C3506       C  0.34858001  0.22296499  0.65493114    -0.04800
C3507       C  0.33411631  0.21302933  0.65358148    -0.23000
C3508       C  0.32361693  0.21452958  0.63953098     0.19200
C3509       C  0.32747635  0.22656672  0.62689068     0.16400
C3510       C  0.34219868  0.23656773  0.62829601    -0.18000
C3511       C  0.31670588  0.22805395  0.61294216    -0.19900
C3512       C  0.30272319  0.21728511  0.61123676    -0.12400
C3513       C  0.29926813  0.20478513  0.62340255     0.04200
C3514       C  0.30961386  0.20378375  0.63772183    -0.24600
H3515       H  0.35650501  0.22126051  0.66588721     0.09300
H3516       H  0.33129263  0.20395167  0.66343923     0.12900
H3517       H  0.34533503  0.24560918  0.61849595     0.12900
H3518       H  0.31932765  0.23724500  0.60314021     0.12600
H3519       H  0.29501962  0.21827394  0.60003373     0.13200
H3520       H  0.30709604  0.19424289  0.64723027     0.15100
C3521       C  0.46574888  0.16871826  0.62399927    -0.04900
C3522       C  0.44850400  0.16564459  0.62144886    -0.04800
C3523       C  0.43644631  0.17701566  0.62737666    -0.23000
C3524       C  0.44140095  0.19173599  0.63590658     0.19200
C3525       C  0.45860719  0.19445954  0.63949898     0.16400
C3526       C  0.47067095  0.18286892  0.63362397    -0.18000
C3527       C  0.46350079  0.20919011  0.64811646    -0.19900
C3528       C  0.45157372  0.22146417  0.65240197    -0.12400
C3529       C  0.43459727  0.21927679  0.64801411     0.04200
C3530       C  0.42954043  0.20416184  0.64013814    -0.24600
H3531       H  0.44435081  0.15486711  0.61410514     0.09300
H3532       H  0.42329311  0.17465202  0.62465222     0.12900
H3533       H  0.48391977  0.18543439  0.63564600     0.12900
H3534       H  0.47662324  0.21148709  0.65102851     0.12600
H3535       H  0.45575908  0.23305792  0.65836085     0.13200
H3536       H  0.41644866  0.20235153  0.63674918     0.15100
C3537       C  0.42829896  0.29830018  0.61818487    -0.04900
C3538       C  0.42256817  0.31494161  0.61610657    -0.04800
C3539       C  0.43357344  0.32769832  0.61059252    -0.23000
C3540       C  0.45049173  0.32401080  0.60706995     0.19200
C3541       C  0.45606063  0.30711221  0.60810918     0.16400
C3542       C  0.44494889  0.29440257  0.61358728    -0.18000
C3543       C  0.47289059  0.30330971  0.60449173    -0.19900
C3544       C  0.48436105  0.31622828  0.60085851    -0.12400
C3545       C  0.47925629  0.33320688  0.60083379     0.04200
C3546       C  0.46212968  0.33697734  0.60340081    -0.24600
H3547       H  0.40981874  0.31827199  0.61957323     0.09300
H3548       H  0.42902135  0.34055253  0.60973414     0.12900
H3549       H  0.44952304  0.28160210  0.61505960     0.12900
H3550       H  0.47733705  0.29040228  0.60511553     0.12600
H3551       H  0.49744551  0.31296670  0.59894006     0.13200
H3552       H  0.45802281  0.35002155  0.60338461     0.15100
C3553       C  0.98420908  0.92072991  0.10480157    -0.04900
C3554       C  0.97255613  0.92484849  0.09214198    -0.04800
C3555       C  0.96242659  0.93912256  0.09353924    -0.23000
C3556       C  0.96375141  0.94973529  0.10760890     0.19200
C3557       C  0.97553892  0.94598405  0.12039257     0.16400
C3558       C  0.98562726  0.93138118  0.11900309    -0.18000
C3559       C  0.97685591  0.95685427  0.13436026    -0.19900
C3560       C  0.96624318  0.97090650  0.13589088    -0.12400
C3561       C  0.95405568  0.97431903  0.12353667     0.04200
C3562       C  0.95316735  0.96381551  0.10923861    -0.24600
H3563       H  0.97111601  0.91687707  0.08111847     0.09300
H3564       H  0.95346468  0.94180162  0.08362486     0.12900
H3565       H  0.99458935  0.92839645  0.12883089     0.12900
H3566       H  0.98586243  0.95431104  0.14426276     0.12600
H3567       H  0.96715760  0.97874745  0.14705837     0.13200
H3568       H  0.94387909  0.96630411  0.09956837     0.15100
C3569       C  0.05275731  0.88687466  0.05940564    -0.04900
C3570       C  0.06198037  0.90175841  0.06254186    -0.04800
C3571       C  0.07581333  0.90617747  0.05258281    -0.23000
C3572       C  0.08092468  0.89576283  0.03925581     0.19200
C3573       C  0.07184799  0.88076753  0.03576466     0.16400
C3574       C  0.05768044  0.87644541  0.04579733    -0.18000
C3575       C  0.07731504  0.87034726  0.02245382    -0.19900
C3576       C  0.09159130  0.87473524  0.01282083    -0.12400
C3577       C  0.10062339  0.88969596  0.01620791     0.04200
C3578       C  0.09508557  0.90012633  0.02948640    -0.24600
H3579       H  0.05854955  0.91004899  0.07286202     0.09300
H3580       H  0.08263694  0.91771181  0.05543686     0.12900
H3581       H  0.05079089  0.86487188  0.04328180     0.12900
H3582       H  0.07060713  0.85876479  0.01954071     0.12600
H3583       H  0.09552837  0.86645566  0.00268134     0.13200
H3584       H  0.10190040  0.91166772  0.03235408     0.15100
C3585       C  0.85003411  0.74233182  0.13750102    -0.04900
C3586       C  0.84429427  0.73267374  0.15127395    -0.04800
C3587       C  0.83091249  0.72138832  0.14952210    -0.23000
C3588       C  0.82283349  0.71953991  0.13396416     0.19200
C3589       C  0.82797638  0.72953331  0.12007444     0.16400
C3590       C  0.84161322  0.74090436  0.12190517    -0.18000
C3591       C  0.81958043  0.72763627  0.10458265    -0.19900
C3592       C  0.80656025  0.71568729  0.10282086    -0.12400
C3593       C  0.80179512  0.70534612  0.11647578     0.04200
C3594       C  0.80991376  0.70755710  0.13206340    -0.24600
H3595       H  0.85044683  0.73350562  0.16342646     0.09300
H3596       H  0.82705578  0.71388557  0.16031142     0.12900
H3597       H  0.84587015  0.74829257  0.11118376     0.12900
H3598       H  0.82325766  0.73518384  0.09376704     0.12600
H3599       H  0.80058037  0.71416939  0.09064854     0.13200
H3600       H  0.80635518  0.69971645  0.14272344     0.15100
C3601       C  0.88986392  0.80516577  0.18825777    -0.04900
C3602       C  0.90374855  0.81105514  0.19755689    -0.04800
C3603       C  0.90197552  0.82427085  0.20923223    -0.23000
C3604       C  0.88624716  0.83183819  0.21192789     0.19200
C3605       C  0.87207413  0.82554633  0.20315883     0.16400
C3606       C  0.87396062  0.81231376  0.19141510    -0.18000
C3607       C  0.85630844  0.83292125  0.20590831    -0.19900
C3608       C  0.85466902  0.84677843  0.21672514    -0.12400
C3609       C  0.86873363  0.85364130  0.22507178     0.04200
C3610       C  0.88450629  0.84585052  0.22284605    -0.24600
H3611       H  0.91612714  0.80581063  0.19540005     0.09300
H3612       H  0.91299311  0.82881527  0.21588319     0.12900
H3613       H  0.86310281  0.80787708  0.18441941     0.12900
H3614       H  0.84527470  0.82820515  0.19940001     0.12600
H3615       H  0.84236230  0.85241192  0.21821324     0.13200
H3616       H  0.89546850  0.85095581  0.22919337     0.15100
C3617       C  0.92044796  0.80603715  0.10950590    -0.04900
C3618       C  0.91602851  0.82318630  0.11060180    -0.04800
C3619       C  0.92702571  0.83576559  0.10477498    -0.23000
C3620       C  0.94264172  0.83140367  0.09775740     0.19200
C3621       C  0.94654851  0.81418938  0.09520609     0.16400
C3622       C  0.93536451  0.80160964  0.10097560    -0.18000
C3623       C  0.96212905  0.80984610  0.08808071    -0.19900
C3624       C  0.97427974  0.82231379  0.08488225    -0.12400
C3625       C  0.97103755  0.83933220  0.08870024     0.04200
C3626       C  0.95486207  0.84386679  0.09438753    -0.24600
H3627       H  0.90459378  0.82694957  0.11702123     0.09300
H3628       H  0.92372282  0.84890714  0.10663169     0.12900
H3629       H  0.93885980  0.78842623  0.09992098     0.12900
H3630       H  0.96526989  0.79672439  0.08584667     0.12600
H3631       H  0.98658311  0.81849147  0.08043580     0.13200
H3632       H  0.95213936  0.85697064  0.09726001     0.15100
C3633       C  0.02961060  0.60115485  0.10365830    -0.04900
C3634       C  0.03913649  0.59525196  0.08987962    -0.04800
C3635       C  0.04982229  0.58140003  0.09154537    -0.23000
C3636       C  0.05131407  0.57308695  0.10706407     0.19200
C3637       C  0.04167567  0.57861147  0.12102147     0.16400
C3638       C  0.03084847  0.59262209  0.11924452    -0.18000
C3639       C  0.04332079  0.57018862  0.13654410    -0.19900
C3640       C  0.05468758  0.55677559  0.13829960    -0.12400
C3641       C  0.06463792  0.55151092  0.12457759     0.04200
C3642       C  0.06262348  0.55960954  0.10890551    -0.24600
H3643       H  0.03850253  0.60150541  0.07774385     0.09300
H3644       H  0.05710978  0.57733102  0.08071081     0.12900
H3645       H  0.02364790  0.59702577  0.13000456     0.12900
H3646       H  0.03605565  0.57417985  0.14741675     0.12600
H3647       H  0.05605518  0.55085672  0.15053679     0.13200
H3648       H  0.07021271  0.55573581  0.09820014     0.15100
C3649       C  0.91617673  0.61586902  0.01974882    -0.04900
C3650       C  0.92162793  0.60267167  0.03028254    -0.04800
C3651       C  0.93492153  0.60505867  0.04155574    -0.23000
C3652       C  0.94318638  0.62070375  0.04255361     0.19200
C3653       C  0.93812802  0.63403820  0.03186544     0.16400
C3654       C  0.92461359  0.63157107  0.02055444    -0.18000
C3655       C  0.94660697  0.64962807  0.03282777    -0.19900
C3656       C  0.95979260  0.65202086  0.04434703    -0.12400
C3657       C  0.96467632  0.63894627  0.05527698     0.04200
C3658       C  0.95630034  0.62325760  0.05420521    -0.24600
H3659       H  0.91543643  0.59045546  0.02999165     0.09300
H3660       H  0.93865508  0.59466819  0.04960165     0.12900
H3661       H  0.92058160  0.64187673  0.01254731     0.12900
H3662       H  0.94296077  0.66002514  0.02475748     0.12600
H3663       H  0.96591705  0.66425523  0.04498015     0.13200
H3664       H  0.95990845  0.61303777  0.06253465     0.15100
C3665       C  0.96556626  0.67638637  0.12803393    -0.04900
C3666       C  0.94850894  0.67198817  0.12644150    -0.04800
C3667       C  0.93589210  0.68338674  0.13114799    -0.23000
C3668       C  0.94011849  0.69927708  0.13785815     0.19200
C3669       C  0.95721521  0.70322065  0.14085197     0.16400
C3670       C  0.96984019  0.69185730  0.13572035    -0.18000
C3671       C  0.96141827  0.71883127  0.14814864    -0.19900
C3672       C  0.94896166  0.73086485  0.15140924    -0.12400
C3673       C  0.93208313  0.72767159  0.14719513     0.04200
C3674       C  0.92767031  0.71157692  0.14088798    -0.24600
H3675       H  0.94493123  0.66020186  0.12045718     0.09300
H3676       H  0.92285650  0.68002121  0.12894706     0.12900
H3677       H  0.98297922  0.69533570  0.13704980     0.12900
H3678       H  0.97442367  0.72197944  0.15079319     0.12600
H3679       H  0.95269926  0.74306567  0.15636937     0.13200
H3680       H  0.91466946  0.70884414  0.13777177     0.15100
C3681       C  0.16554897  0.78156306  0.12504048    -0.04900
C3682       C  0.16853278  0.78418245  0.10772953    -0.04800
C3683       C  0.18221159  0.79402480  0.10224818    -0.23000
C3684       C  0.19320535  0.80146460  0.11396930     0.19200
C3685       C  0.19048575  0.79867689  0.13139433     0.16400
C3686       C  0.17677539  0.78872072  0.13679474    -0.18000
C3687       C  0.20127926  0.80625098  0.14317117    -0.19900
C3688       C  0.21436686  0.81683603  0.13779578    -0.12400
C3689       C  0.21715013  0.81989044  0.12052314     0.04200
C3690       C  0.20662169  0.81193483  0.10862226    -0.24600
H3691       H  0.16005523  0.77892755  0.09840812     0.09300
H3692       H  0.18403173  0.79603514  0.08883924     0.12900
H3693       H  0.17463683  0.78687253  0.15019012     0.12900
H3694       H  0.19940088  0.80425829  0.15657886     0.12600
H3695       H  0.22225906  0.82280195  0.14721637     0.13200
H3696       H  0.20849865  0.81434958  0.09528110     0.15100
C3697       C  0.14948656  0.67058704  0.21719604    -0.04900
C3698       C  0.16034951  0.67317328  0.20338374    -0.04800
C3699       C  0.15774069  0.68638979  0.19206976    -0.23000
C3700       C  0.14429205  0.69751896  0.19436362     0.19200
C3701       C  0.13340008  0.69543707  0.20834855     0.16400
C3702       C  0.13596859  0.68184999  0.21965692    -0.18000
C3703       C  0.12010989  0.70692066  0.21058356    -0.19900
C3704       C  0.11746967  0.72002413  0.19889099    -0.12400
C3705       C  0.12801719  0.72184324  0.18470017     0.04200
C3706       C  0.14151729  0.71056992  0.18270935    -0.24600
H3707       H  0.17079496  0.66472402  0.20110129     0.09300
H3708       H  0.16622589  0.68784145  0.18143135     0.12900
H3709       H  0.12753446  0.68006439  0.23028590     0.12900
H3710       H  0.11165000  0.70566152  0.22126119     0.12600
H3711       H  0.10697575  0.72850493  0.20075696     0.13200
H3712       H  0.14983524  0.71180868  0.17190728     0.15100
C3713       C  0.04077272  0.84324461  0.13244657    -0.04900
C3714       C  0.03329463  0.82857210  0.13917455    -0.04800
C3715       C  0.04319476  0.81547414  0.14551443    -0.23000
C3716       C  0.06079091  0.81666677  0.14496815     0.19200
C3717       C  0.06842996  0.83175890  0.13913043     0.16400
C3718       C  0.05837037  0.84505787  0.13315803    -0.18000
C3719       C  0.08601674  0.83287195  0.13835357    -0.19900
C3720       C  0.09590080  0.81886313  0.14232793    -0.12400
C3721       C  0.08842776  0.80347465  0.14726918     0.04200
C3722       C  0.07083376  0.80267654  0.14914963    -0.24600
H3723       H  0.01977229  0.82687808  0.13880820     0.09300
H3724       H  0.03709504  0.80406788  0.15004903     0.12900
H3725       H  0.06430326  0.85623912  0.12787794     0.12900
H3726       H  0.09211549  0.84433740  0.13396304     0.12600
H3727       H  0.10940758  0.81986311  0.14075634     0.13200
H3728       H  0.06489326  0.79089725  0.15289029     0.15100
C3729       C  0.08753195  0.72677753  0.10924626    -0.04900
C3730       C  0.07435383  0.73373046  0.09972112    -0.04800
C3731       C  0.06148140  0.72338730  0.09332451    -0.23000
C3732       C  0.06132539  0.70596917  0.09673847     0.19200
C3733       C  0.07490761  0.69883419  0.10572781     0.16400
C3734       C  0.08805154  0.70918774  0.11155049    -0.18000
C3735       C  0.07462270  0.68161642  0.10976051    -0.19900
C3736       C  0.06057754  0.67175199  0.10589190    -0.12400
C3737       C  0.04671807  0.67873931  0.09749002     0.04200
C3738       C  0.04741062  0.69574900  0.09231408    -0.24600
H3739       H  0.07366312  0.74725325  0.09776057     0.09300
H3740       H  0.05123637  0.72913496  0.08644158     0.12900
H3741       H  0.09804579  0.70366793  0.11899002     0.12900
H3742       H  0.08492305  0.67594408  0.11662973     0.12600
H3743       H  0.06033662  0.65866865  0.10991271     0.13200
H3744       H  0.03668971  0.70128074  0.08599316     0.15100
C3745       C  0.29803475  0.70821881  0.35962737    -0.04900
C3746       C  0.30552270  0.70535986  0.34378455    -0.04800
C3747       C  0.31886908  0.71535491  0.33811230    -0.23000
C3748       C  0.32527729  0.72833326  0.34826075     0.19200
C3749       C  0.31762183  0.73185097  0.36399702     0.16400
C3750       C  0.30382772  0.72188670  0.36952775    -0.18000
C3751       C  0.32443361  0.74476325  0.37414330    -0.19900
C3752       C  0.33904450  0.75350854  0.36906112    -0.12400
C3753       C  0.34698579  0.74966826  0.35363551     0.04200
C3754       C  0.33966985  0.73733820  0.34314073    -0.24600
H3755       H  0.30131321  0.69501304  0.33587425     0.09300
H3756       H  0.32456264  0.71253441  0.32599405     0.12900
H3757       H  0.29828119  0.72414582  0.38183194     0.12900
H3758       H  0.31876748  0.74775238  0.38622857     0.12600
H3759       H  0.34432762  0.76301439  0.37735695     0.13200
H3760       H  0.34557238  0.73422019  0.33119162     0.15100
C3761       C  0.38268514  0.80531127  0.29811982    -0.04900
C3762       C  0.39321584  0.80757482  0.28401083    -0.04800
C3763       C  0.39078843  0.82120208  0.27299158    -0.23000
C3764       C  0.37767735  0.83270973  0.27579689     0.19200
C3765       C  0.36669489  0.83017866  0.28964818     0.16400
C3766       C  0.36930047  0.81658750  0.30070826    -0.18000
C3767       C  0.35344554  0.84145912  0.29241140    -0.19900
C3768       C  0.35118074  0.85524662  0.28168803    -0.12400
C3769       C  0.36218351  0.85815756  0.26803814     0.04200
C3770       C  0.37543605  0.84677058  0.26513358    -0.24600
H3771       H  0.40369706  0.79915065  0.28183170     0.09300
H3772       H  0.39931253  0.82287571  0.26242200     0.12900
H3773       H  0.36106771  0.81496472  0.31153155     0.12900
H3774       H  0.34488616  0.83968842  0.30294444     0.12600
H3775       H  0.34089296  0.86380898  0.28425493     0.13200
H3776       H  0.38396621  0.84883971  0.25463190     0.15100
C3777       C  0.48798994  0.92575524  0.38389813    -0.04900
C3778       C  0.47750483  0.93119751  0.39714324    -0.04800
C3779       C  0.46611811  0.94431986  0.39476736    -0.23000
C3780       C  0.46492071  0.95231102  0.37906789     0.19200
C3781       C  0.47559270  0.94729384  0.36568295     0.16400
C3782       C  0.48712736  0.93404080  0.36818501    -0.18000
C3783       C  0.47428842  0.95545965  0.34999879    -0.19900
C3784       C  0.46236175  0.96823738  0.34756472    -0.12400
C3785       C  0.45147331  0.97299345  0.36073556     0.04200
C3786       C  0.45298699  0.96504443  0.37651062    -0.24600
H3787       H  0.47791671  0.92512034  0.40938050     0.09300
H3788       H  0.45807164  0.94806072  0.40517242     0.12900
H3789       H  0.49510315  0.92995208  0.35785848     0.12900
H3790       H  0.48234127  0.95183029  0.33956567     0.12600
H3791       H  0.46138903  0.97412124  0.33526948     0.13200
H3792       H  0.44470155  0.96861652  0.38679526     0.15100
C3793       C  0.55244317  0.89717642  0.43251797    -0.04900
C3794       C  0.56005284  0.91322269  0.43143811    -0.04800
C3795       C  0.57355712  0.91756905  0.44188084    -0.23000
C3796       C  0.57995710  0.90584184  0.45344381     0.19200
C3797       C  0.57221215  0.88978764  0.45492831     0.16400
C3798       C  0.55835080  0.88563564  0.44462952    -0.18000
C3799       C  0.57883678  0.87797313  0.46629192    -0.19900
C3800       C  0.59317375  0.88186855  0.47581004    -0.12400
C3801       C  0.60112562  0.89770991  0.47429547     0.04200
C3802       C  0.59424537  0.90973749  0.46319653    -0.24600
H3803       H  0.55575556  0.92234143  0.42223316     0.09300
H3804       H  0.57929339  0.92995017  0.44057544     0.12900
H3805       H  0.55272377  0.87316005  0.44546039     0.12900
H3806       H  0.57310808  0.86559245  0.46760595     0.12600
H3807       H  0.59814894  0.87238447  0.48425670     0.13200
H3808       H  0.60022772  0.92200218  0.46184203     0.15100
C3809       C  0.43423122  0.80569651  0.35659448    -0.04900
C3810       C  0.44388267  0.81338928  0.34379330    -0.04800
C3811       C  0.45673279  0.82474351  0.34767146    -0.23000
C3812       C  0.46040270  0.82859647  0.36449392     0.19200
C3813       C  0.45085601  0.82110303  0.37761116     0.16400
C3814       C  0.43765316  0.80975670  0.37358216    -0.18000
C3815       C  0.45484978  0.82504434  0.39445032    -0.19900
C3816       C  0.46809423  0.83626902  0.39818403    -0.12400
C3817       C  0.47755028  0.84379250  0.38515154     0.04200
C3818       C  0.47355387  0.83981478  0.36832192    -0.24600
H3819       H  0.44146820  0.81063914  0.33062198     0.09300
H3820       H  0.46390114  0.83042235  0.33747116     0.12900
H3821       H  0.43034589  0.80388313  0.38356639     0.12900
H3822       H  0.44775006  0.81944266  0.40472793     0.12600
H3823       H  0.47088240  0.83912370  0.41124819     0.13200
H3824       H  0.48070295  0.84547217  0.35808804     0.15100
C3825       C  0.67209694  0.78085208  0.36591470    -0.04900
C3826       C  0.67908910  0.77955028  0.38216800    -0.04800
C3827       C  0.69284893  0.78973785  0.38692420    -0.23000
C3828       C  0.69987678  0.80146883  0.37553336     0.19200
C3829       C  0.69298250  0.80270497  0.35915821     0.16400
C3830       C  0.67928125  0.79245318  0.35449166    -0.18000
C3831       C  0.69970638  0.81438040  0.34768869    -0.19900
C3832       C  0.71294499  0.82498252  0.35239635    -0.12400
C3833       C  0.71990574  0.82420150  0.36868084     0.04200
C3834       C  0.71340851  0.81219463  0.38021060    -0.24600
H3835       H  0.67376844  0.77083037  0.39128479     0.09300
H3836       H  0.69786662  0.78856808  0.39956755     0.12900
H3837       H  0.67403547  0.79372894  0.34194492     0.12900
H3838       H  0.69456638  0.81548680  0.33508626     0.12600
H3839       H  0.71760717  0.83404048  0.34324511     0.13200
H3840       H  0.71851917  0.81152398  0.39285722     0.15100
C3841       C  0.63540499  0.72332190  0.30692699    -0.04900
C3842       C  0.62333599  0.72110235  0.29415222    -0.04800
C3843       C  0.62504131  0.70810522  0.28218095    -0.23000
C3844       C  0.63890849  0.69715489  0.28271808     0.19200
C3845       C  0.65137393  0.69979057  0.29515999     0.16400
C3846       C  0.64955701  0.71277483  0.30708902    -0.18000
C3847       C  0.66530811  0.68911241  0.29583049    -0.19900
C3848       C  0.66677729  0.67567278  0.28458462    -0.12400
C3849       C  0.65438350  0.67251739  0.27232011     0.04200
C3850       C  0.64046347  0.68347463  0.27131970    -0.24600
H3851       H  0.61225272  0.72899996  0.29381140     0.09300
H3852       H  0.61534892  0.70640636  0.27273983     0.12900
H3853       H  0.65899200  0.71438109  0.31682350     0.12900
H3854       H  0.67500677  0.69100731  0.30523534     0.12600
H3855       H  0.67767725  0.66759057  0.28565125     0.13200
H3856       H  0.63083285  0.68125640  0.26191194     0.15100
C3857       C  0.59700314  0.80147717  0.36110989    -0.04900
C3858       C  0.59817228  0.80706790  0.37791938    -0.04800
C3859       C  0.58901381  0.82088199  0.38355759    -0.23000
C3860       C  0.57835446  0.82945242  0.37254575     0.19200
C3861       C  0.57737803  0.82451898  0.35541576     0.16400
C3862       C  0.58685781  0.81054038  0.34970372    -0.18000
C3863       C  0.56652474  0.83336508  0.34458766    -0.19900
C3864       C  0.55626244  0.84636701  0.35089049    -0.12400
C3865       C  0.55672180  0.85069578  0.36809254     0.04200
C3866       C  0.56818668  0.84247373  0.37867906    -0.24600
H3867       H  0.60605210  0.80055197  0.38692274     0.09300
H3868       H  0.58997200  0.82460644  0.39668822     0.12900
H3869       H  0.58589921  0.80641138  0.33669644     0.12900
H3870       H  0.56558943  0.82989070  0.33139628     0.12600
H3871       H  0.54745170  0.85248691  0.34250655     0.13200
H3872       H  0.56873993  0.84576935  0.39196002     0.15100
C3873       C  0.52236055  0.59883869  0.37727298    -0.04900
C3874       C  0.52161764  0.59191793  0.36093322    -0.04800
C3875       C  0.53143495  0.57781134  0.35663359    -0.23000
C3876       C  0.54213075  0.57038399  0.36862368     0.19200
C3877       C  0.54251153  0.57706390  0.38517462     0.16400
C3878       C  0.53263365  0.59107671  0.38936756    -0.18000
C3879       C  0.55317925  0.56999263  0.39724235    -0.19900
C3880       C  0.56392609  0.55684723  0.39286569    -0.12400
C3881       C  0.56411315  0.55026429  0.37640682     0.04200
C3882       C  0.55285660  0.55681880  0.36434431    -0.24600
H3883       H  0.51378576  0.59766184  0.35138039     0.09300
H3884       H  0.53090960  0.57293029  0.34386660     0.12900
H3885       H  0.53326357  0.59619087  0.40205127     0.12900
H3886       H  0.55357208  0.57495773  0.40998554     0.12600
H3887       H  0.57244317  0.55203216  0.40234551     0.13200
H3888       H  0.55305833  0.55199093  0.35153965     0.15100
C3889       C  0.46654299  0.62815353  0.43432812    -0.04900
C3890       C  0.46057501  0.61141744  0.43389815    -0.04800
C3891       C  0.44798513  0.60600383  0.44495494    -0.23000
C3892       C  0.44087999  0.61729565  0.45653283     0.19200
C3893       C  0.44703714  0.63405439  0.45752325     0.16400
C3894       C  0.46002923  0.63935630  0.44651712    -0.18000
C3895       C  0.43960698  0.64530843  0.46905003    -0.19900
C3896       C  0.42587112  0.64015833  0.47901367    -0.12400
C3897       C  0.41938056  0.62365148  0.47767174     0.04200
C3898       C  0.42726919  0.61220733  0.46665012    -0.24600
H3899       H  0.46540244  0.60255604  0.42467212     0.09300
H3900       H  0.44343346  0.59310456  0.44407541     0.12900
H3901       H  0.46440504  0.65234482  0.44682861     0.12900
H3902       H  0.44411721  0.65821062  0.47003214     0.12600
H3903       H  0.42000533  0.64923615  0.48737155     0.13200
H3904       H  0.42243714  0.59942792  0.46547336     0.15100
C3905       C  0.58940339  0.71902339  0.37279004    -0.04900
C3906       C  0.59243621  0.70921513  0.38726070    -0.04800
C3907       C  0.58013708  0.69789880  0.39335542    -0.23000
C3908       C  0.56460370  0.69614661  0.38505181     0.19200
C3909       C  0.56155255  0.70598078  0.37049314     0.16400
C3910       C  0.57385391  0.71726342  0.36453479    -0.18000
C3911       C  0.54626156  0.70434484  0.36195361    -0.19900
C3912       C  0.53416329  0.69284854  0.36752617    -0.12400
C3913       C  0.53693446  0.68278335  0.38186379     0.04200
C3914       C  0.55215408  0.68465014  0.39079797    -0.24600
H3915       H  0.60429285  0.71030801  0.39386834     0.09300
H3916       H  0.58280180  0.69048154  0.40451319     0.12900
H3917       H  0.57128073  0.72466971  0.35333245     0.12900
H3918       H  0.54371567  0.71183284  0.35080633     0.12600
H3919       H  0.52254888  0.69177144  0.36047683     0.13200
H3920       H  0.55447832  0.67689006  0.40180757     0.15100
C3921       C  0.42440544  0.72307848  0.34301260    -0.04900
C3922       C  0.43603541  0.71714675  0.33100651    -0.04800
C3923       C  0.44660227  0.70347932  0.33482373    -0.23000
C3924       C  0.44572366  0.69559781  0.35072061     0.19200
C3925       C  0.43361239  0.70117771  0.36255240     0.16400
C3926       C  0.42299678  0.71464845  0.35855687    -0.18000
C3927       C  0.43275818  0.69374539  0.37855904    -0.19900
C3928       C  0.44432674  0.68144608  0.38318000    -0.12400
C3929       C  0.45673058  0.67602217  0.37178162     0.04200
C3930       C  0.45711544  0.68278440  0.35533558    -0.24600
H3931       H  0.43736915  0.72344009  0.31893889     0.09300
H3932       H  0.45578424  0.69941816  0.32555464     0.12900
H3933       H  0.41399897  0.71899606  0.36789192     0.12900
H3934       H  0.42352138  0.69788695  0.38774150     0.12600
H3935       H  0.44381750  0.67639548  0.39588338     0.13200
H3936       H  0.46681185  0.67881719  0.34655907     0.15100
C3937       C  0.38621560  0.71385711  0.80140663    -0.04900
C3938       C  0.39836658  0.71072544  0.78885824    -0.04800
C3939       C  0.39608336  0.69757612  0.77716273    -0.23000
C3940       C  0.38162174  0.68730527  0.77784860     0.19200
C3941       C  0.36916645  0.69077182  0.79014058     0.16400
C3942       C  0.37148688  0.70399459  0.80169147    -0.18000
C3943       C  0.35471709  0.68068094  0.79104597    -0.19900
C3944       C  0.35275309  0.66695992  0.78022230    -0.12400
C3945       C  0.36511659  0.66300343  0.76812517     0.04200
C3946       C  0.37948659  0.67344550  0.76678692    -0.24600
H3947       H  0.40983977  0.71814214  0.78837087     0.09300
H3948       H  0.40578099  0.69522083  0.76782757     0.12900
H3949       H  0.36196897  0.70629146  0.81124317     0.12900
H3950       H  0.34501975  0.68322685  0.80033655     0.12600
H3951       H  0.34147588  0.65932060  0.78144598     0.13200
H3952       H  0.38908144  0.67060116  0.75747503     0.15100
C3953       C  0.31361266  0.63703256  0.70592935    -0.04900
C3954       C  0.31426225  0.65401648  0.70078979    -0.04800
C3955       C  0.30392310  0.65989423  0.68789293    -0.23000
C3956       C  0.29286076  0.64884136  0.67965347     0.19200
C3957       C  0.29163546  0.63182706  0.68498533     0.16400
C3958       C  0.30188838  0.62604848  0.69829217    -0.18000
C3959       C  0.28064486  0.62081656  0.67645726    -0.19900
C3960       C  0.27132299  0.62651175  0.66257175    -0.12400
C3961       C  0.27278318  0.64332567  0.65698215     0.04200
C3962       C  0.28343082  0.65445714  0.66581050    -0.24600
H3963       H  0.32314597  0.66271465  0.70649001     0.09300
H3964       H  0.30497060  0.67298575  0.68400646     0.12900
H3965       H  0.30141643  0.61287920  0.70203000     0.12900
H3966       H  0.27952121  0.60771968  0.68029590     0.12600
H3967       H  0.26326680  0.61765665  0.65596612     0.13200
H3968       H  0.28470808  0.66745624  0.66166441     0.15100
C3969       C  0.38268314  0.56516978  0.53248248    -0.04900
C3970       C  0.37151819  0.55137977  0.53380256    -0.04800
C3971       C  0.37344750  0.53926031  0.54662285    -0.23000
C3972       C  0.38668750  0.54060016  0.55829381     0.19200
C3973       C  0.39830975  0.55408245  0.55660578     0.16400
C3974       C  0.39619467  0.56624818  0.54385618    -0.18000
C3975       C  0.41172433  0.55543529  0.56792193    -0.19900
C3976       C  0.41345433  0.54384211  0.58105786    -0.12400
C3977       C  0.40175699  0.53062634  0.58338661     0.04200
C3978       C  0.38840704  0.52896042  0.57176378    -0.24600
H3979       H  0.36094220  0.55028484  0.52528147     0.09300
H3980       H  0.36442078  0.52900559  0.54757403     0.12900
H3981       H  0.40494603  0.57676415  0.54297798     0.12900
H3982       H  0.42080779  0.56562532  0.56675477     0.12600
H3983       H  0.42387321  0.54549952  0.58968480     0.13200
H3984       H  0.37932808  0.51881683  0.57329420     0.15100
C3985       C  0.45079117  0.46684704  0.61848937    -0.04900
C3986       C  0.45359952  0.46194838  0.60169085    -0.04800
C3987       C  0.46524609  0.44940390  0.59782018    -0.23000
C3988       C  0.47398412  0.44119166  0.61073718     0.19200
C3989       C  0.47156971  0.44619703  0.62770175     0.16400
C3990       C  0.46017096  0.45926471  0.63146643    -0.18000
C3991       C  0.48009643  0.43756074  0.64057120    -0.19900
C3992       C  0.49043736  0.42376568  0.63668452    -0.12400
C3993       C  0.49254335  0.41850338  0.61985741     0.04200
C3994       C  0.48455639  0.42758755  0.60694706    -0.24600
H3995       H  0.44654967  0.46768082  0.59152771     0.09300
H3996       H  0.46699144  0.44572692  0.58475580     0.12900
H3997       H  0.45792985  0.46287275  0.64447908     0.12900
H3998       H  0.47840801  0.44117272  0.65365869     0.12600
H3999       H  0.49644776  0.41696859  0.64686138     0.13200
H4000       H  0.48607848  0.42370064  0.59390933     0.15100
C4001       C  0.37784885  0.59140065  0.69578777    -0.04900
C4002       C  0.36825250  0.58930919  0.68108276    -0.04800
C4003       C  0.37285332  0.57756007  0.66886723    -0.23000
C4004       C  0.38703681  0.56745852  0.67122730     0.19200
C4005       C  0.39719990  0.56972519  0.68568247     0.16400
C4006       C  0.39262829  0.58188349  0.69787192    -0.18000
C4007       C  0.41131417  0.55932459  0.68790782    -0.19900
C4008       C  0.41496162  0.54653117  0.67619392    -0.12400
C4009       C  0.40452346  0.54394312  0.66213361     0.04200
C4010       C  0.39079004  0.55470796  0.65960355    -0.24600
H4011       H  0.35682822  0.59648591  0.67925604     0.09300
H4012       H  0.36498346  0.57598964  0.65782581     0.12900
H4013       H  0.39994549  0.58323762  0.70932123     0.12900
H4014       H  0.41927912  0.56081731  0.69888449     0.12600
H4015       H  0.42558807  0.53832059  0.67842210     0.13200
H4016       H  0.38268474  0.55287562  0.64876166     0.15100
C4017       C  0.38795683  0.45018795  0.95242944    -0.04900
C4018       C  0.37780029  0.46464541  0.95132643    -0.04800
C4019       C  0.38021942  0.47644173  0.93833024    -0.23000
C4020       C  0.39290509  0.47406087  0.92620374     0.19200
C4021       C  0.40345461  0.45977810  0.92745637     0.16400
C4022       C  0.40088999  0.44795193  0.94046902    -0.18000
C4023       C  0.41626991  0.45741187  0.91552918    -0.19900
C4024       C  0.41846313  0.46889397  0.90232067    -0.12400
C4025       C  0.40781207  0.48294001  0.90060619     0.04200
C4026       C  0.39508697  0.48553424  0.91272978    -0.24600
H4027       H  0.36773155  0.46666577  0.96032751     0.09300
H4028       H  0.37203363  0.48732549  0.93765681     0.12900
H4029       H  0.40885312  0.43688774  0.94114831     0.12900
H4030       H  0.42451272  0.44657278  0.91631021     0.12600
H4031       H  0.42834073  0.46653619  0.89318287     0.13200
H4032       H  0.38683213  0.49633469  0.91160481     0.15100
C4033       C  0.45301681  0.55070602  0.86859657    -0.04900
C4034       C  0.46726712  0.55364381  0.85843893    -0.04800
C4035       C  0.47863764  0.56665308  0.86238147    -0.23000
C4036       C  0.47601507  0.57690935  0.87661560     0.19200
C4037       C  0.46203919  0.57364784  0.88721717     0.16400
C4038       C  0.45064264  0.56067110  0.88311710    -0.18000
C4039       C  0.45949142  0.58362184  0.90160734    -0.19900
C4040       C  0.47036327  0.59704543  0.90521756    -0.12400
C4041       C  0.48393043  0.60091137  0.89444495     0.04200
C4042       C  0.48686270  0.59057420  0.88025724    -0.24600
H4043       H  0.46942369  0.54612226  0.84722524     0.09300
H4044       H  0.48933913  0.56885084  0.85415515     0.12900
H4045       H  0.43979270  0.55846598  0.89115885     0.12900
H4046       H  0.44891426  0.58121730  0.90994185     0.12600
H4047       H  0.46783541  0.60473546  0.91624101     0.13200
H4048       H  0.49737435  0.59331609  0.87193563     0.15100
C4049       C  0.38015010  0.54264441  0.82286792    -0.04900
C4050       C  0.36891868  0.55485904  0.82904581    -0.04800
C4051       C  0.36065041  0.56583173  0.81789875    -0.23000
C4052       C  0.36350785  0.56476395  0.80040307     0.19200
C4053       C  0.37418366  0.55195110  0.79412341     0.16400
C4054       C  0.38226945  0.54097633  0.80532516    -0.18000
C4055       C  0.37736523  0.55083175  0.77677479    -0.19900
C4056       C  0.37097525  0.56295506  0.76582293    -0.12400
C4057       C  0.36097382  0.57621866  0.77189989     0.04200
C4058       C  0.35669651  0.57674831  0.78915070    -0.24600
H4059       H  0.36706554  0.55637956  0.84250630     0.09300
H4060       H  0.35249332  0.57551399  0.82299996     0.12900
H4061       H  0.39078894  0.53151487  0.80037052     0.12900
H4062       H  0.38544787  0.54103404  0.77176189     0.12600
H4063       H  0.37438810  0.56234564  0.75258200     0.13200
H4064       H  0.34916836  0.58709082  0.79394233     0.15100
C4065       C  0.38242427  0.34707093  0.72973777    -0.04900
C4066       C  0.39953584  0.34259076  0.72953729    -0.04800
C4067       C  0.40497885  0.32821115  0.72069685    -0.23000
C4068       C  0.39340256  0.31806340  0.71187902     0.19200
C4069       C  0.37611925  0.32218545  0.71259330     0.16400
C4070       C  0.37078336  0.33653515  0.72149288    -0.18000
C4071       C  0.36442010  0.31225357  0.70387962    -0.19900
C4072       C  0.36981336  0.29897336  0.69370467    -0.12400
C4073       C  0.38700208  0.29517363  0.69210690     0.04200
C4074       C  0.39876891  0.30437756  0.70175666    -0.24600
H4075       H  0.40876129  0.35042075  0.73588621     0.09300
H4076       H  0.41827560  0.32527438  0.72041679     0.12900
H4077       H  0.35753191  0.33971306  0.72165393     0.12900
H4078       H  0.35111828  0.31514514  0.70442332     0.12600
H4079       H  0.36049270  0.29199619  0.68654781     0.13200
H4080       H  0.41206101  0.30160874  0.70057327     0.15100
C4081       C  0.31882555  0.38316717  0.78430299    -0.04900
C4082       C  0.31232015  0.36665511  0.78536185    -0.04800
C4083       C  0.30075992  0.36226282  0.79797478    -0.23000
C4084       C  0.29564959  0.37423970  0.80997117     0.19200
C4085       C  0.30155708  0.39106499  0.80868441     0.16400
C4086       C  0.31297009  0.39547843  0.79573713    -0.18000
C4087       C  0.29647571  0.40298234  0.82079493    -0.19900
C4088       C  0.28617410  0.39813969  0.83437112    -0.12400
C4089       C  0.28075891  0.38129451  0.83611377     0.04200
C4090       C  0.28528243  0.36949101  0.82360352    -0.24600
H4091       H  0.31655535  0.35696911  0.77669157     0.09300
H4092       H  0.29626859  0.34933357  0.79869371     0.12900
H4093       H  0.31796561  0.40823394  0.79513374     0.12900
H4094       H  0.30084037  0.41595049  0.82002706     0.12600
H4095       H  0.28292683  0.40746084  0.84383315     0.13200
H4096       H  0.28117072  0.35645876  0.82474873     0.15100
C4097       C  0.36280120  0.43340865  0.71487966    -0.04900
C4098       C  0.36796446  0.44952362  0.72034095    -0.04800
C4099       C  0.37282939  0.46190424  0.70872966    -0.23000
C4100       C  0.37242750  0.45851140  0.69137018     0.19200
C4101       C  0.36623031  0.44277089  0.68561466     0.16400
C4102       C  0.36152461  0.43025047  0.69741956    -0.18000
C4103       C  0.36555274  0.43962211  0.66816777    -0.19900
C4104       C  0.37177062  0.45156793  0.65661007    -0.12400
C4105       C  0.37888534  0.46680941  0.66229616     0.04200
C4106       C  0.37874339  0.47035329  0.67972709    -0.24600
H4107       H  0.36911533  0.45229855  0.73368072     0.09300
H4108       H  0.37741447  0.47395766  0.71336104     0.12900
H4109       H  0.35750142  0.41790190  0.69304664     0.12900
H4110       H  0.36068957  0.42770912  0.66347945     0.12600
H4111       H  0.37170878  0.44855394  0.64327869     0.13200
H4112       H  0.38405088  0.48213982  0.68430080     0.15100
C4113       C  0.41641582  0.46869781  0.82282456    -0.04900
C4114       C  0.42330430  0.46966876  0.80651462    -0.04800
C4115       C  0.42060111  0.45661444  0.79488022    -0.23000
C4116       C  0.41108914  0.44232647  0.79944892     0.19200
C4117       C  0.40522536  0.44069365  0.81623360     0.16400
C4118       C  0.40788573  0.45389644  0.82778806    -0.18000
C4119       C  0.39591970  0.42634170  0.82090305    -0.19900
C4120       C  0.39119847  0.41444583  0.80874926    -0.12400
C4121       C  0.39571297  0.41666975  0.79171839     0.04200
C4122       C  0.40639672  0.43022588  0.78730468    -0.24600
H4123       H  0.42994912  0.48094265  0.80245837     0.09300
H4124       H  0.42533729  0.45802300  0.78211814     0.12900
H4125       H  0.40269118  0.45297399  0.84043045     0.12900
H4126       H  0.39153303  0.42476525  0.83377301     0.12600
H4127       H  0.38307342  0.40408283  0.81252037     0.13200
H4128       H  0.41003113  0.43206180  0.77423157     0.15100
C4129       C  0.92270962  0.40003515  0.48074884    -0.04900
C4130       C  0.93096228  0.38468519  0.48394814    -0.04800
C4131       C  0.94469878  0.37964651  0.47399273    -0.23000
C4132       C  0.95030444  0.38976679  0.46050751     0.19200
C4133       C  0.94232418  0.40540292  0.45749469     0.16400
C4134       C  0.92880343  0.41050186  0.46771801    -0.18000
C4135       C  0.94754039  0.41544083  0.44387488    -0.19900
C4136       C  0.96003651  0.40975697  0.43287411    -0.12400
C4137       C  0.96788344  0.39410148  0.43544119     0.04200
C4138       C  0.96326918  0.38430892  0.44959193    -0.24600
H4139       H  0.92658714  0.37641108  0.49393668     0.09300
H4140       H  0.95063587  0.36762509  0.47655494     0.12900
H4141       H  0.92261099  0.42238346  0.46507759     0.12900
H4142       H  0.94158537  0.42747638  0.44141016     0.12600
H4143       H  0.96342374  0.41755151  0.42214083     0.13200
H4144       H  0.96914346  0.37214469  0.45161041     0.15100
C4145       C  0.89324665  0.45341561  0.54146025    -0.04900
C4146       C  0.90769123  0.45007757  0.55109283    -0.04800
C4147       C  0.91198982  0.46027606  0.56482652    -0.23000
C4148       C  0.90175822  0.47388752  0.56947065     0.19200
C4149       C  0.88737105  0.47766288  0.55975445     0.16400
C4150       C  0.88332689  0.46754520  0.54562835    -0.18000
C4151       C  0.87697754  0.49109405  0.56475637    -0.19900
C4152       C  0.88052286  0.50032200  0.57947432    -0.12400
C4153       C  0.89467598  0.49648582  0.58934224     0.04200
C4154       C  0.90540969  0.48340919  0.58400543    -0.24600
H4155       H  0.91554873  0.43930475  0.54819624     0.09300
H4156       H  0.92306949  0.45719886  0.57212493     0.12900
H4157       H  0.87205588  0.47015049  0.53843899     0.12900
H4158       H  0.86589002  0.49421997  0.55750068     0.12600
H4159       H  0.87210159  0.51037401  0.58321855     0.13200
H4160       H  0.91636710  0.48025808  0.59146526     0.15100
C4161       C  0.77717012  0.36222598  0.65865035    -0.04900
C4162       C  0.78825621  0.34931292  0.66351166    -0.04800
C4163       C  0.79875606  0.35129533  0.67748222    -0.23000
C4164       C  0.79840397  0.36624177  0.68695241     0.19200
C4165       C  0.78674632  0.37900628  0.68277924     0.16400
C4166       C  0.77617517  0.37692657  0.66864572    -0.18000
C4167       C  0.78632432  0.39385786  0.69247768    -0.19900
C4168       C  0.79785437  0.39636525  0.70561631    -0.12400
C4169       C  0.81008162  0.38412047  0.70925265     0.04200
C4170       C  0.80996985  0.36887820  0.70010029    -0.24600
H4171       H  0.78920898  0.33779970  0.65618094     0.09300
H4172       H  0.80748904  0.34130357  0.68059728     0.12900
H4173       H  0.76761578  0.38694018  0.66513257     0.12900
H4174       H  0.77741337  0.40375363  0.68958407     0.12600
H4175       H  0.79769203  0.40822930  0.71243130     0.13200
H4176       H  0.81927084  0.35928723  0.70282188     0.15100
C4177       C  0.71628612  0.31489329  0.61908295    -0.04900
C4178       C  0.71530738  0.30062810  0.60852928    -0.04800
C4179       C  0.70293996  0.28817257  0.61122129    -0.23000
C4180       C  0.69141328  0.28966727  0.62462429     0.19200
C4181       C  0.69270822  0.30370012  0.63560618     0.16400
C4182       C  0.70499784  0.31618960  0.63272547    -0.18000
C4183       C  0.68153593  0.30518598  0.64920589    -0.19900
C4184       C  0.66895537  0.29310591  0.65176057    -0.12400
C4185       C  0.66707512  0.27932140  0.64069004     0.04200
C4186       C  0.67848341  0.27759221  0.62713779    -0.24600
H4187       H  0.72387811  0.29928002  0.59796973     0.09300
H4188       H  0.70228337  0.27747016  0.60271420     0.12900
H4189       H  0.70567887  0.32702393  0.64108280     0.12900
H4190       H  0.68239392  0.31582310  0.65778659     0.12600
H4191       H  0.66034258  0.29485283  0.66222964     0.13200
H4192       H  0.67720914  0.26702546  0.61852332     0.15100
C4193       C  0.84178303  0.39487744  0.54462490    -0.04900
C4194       C  0.83459953  0.40689329  0.55550645    -0.04800
C4195       C  0.82211579  0.40227905  0.56700688    -0.23000
C4196       C  0.81629200  0.38557707  0.56767106     0.19200
C4197       C  0.82348563  0.37322218  0.55700641     0.16400
C4198       C  0.83643555  0.37790520  0.54566445    -0.18000
C4199       C  0.81720167  0.35658594  0.55759133    -0.19900
C4200       C  0.80372541  0.35238260  0.56835012    -0.12400
C4201       C  0.79644746  0.36470063  0.57884489     0.04200
C4202       C  0.80304461  0.38121723  0.57854959    -0.24600
H4203       H  0.83855021  0.42000688  0.55499638     0.09300
H4204       H  0.81672895  0.41188628  0.57511443     0.12900
H4205       H  0.84178981  0.36858529  0.53720820     0.12900
H4206       H  0.82249028  0.34691092  0.54951006     0.12600
H4207       H  0.79888196  0.33957202  0.56832134     0.13200
H4208       H  0.79756566  0.39090196  0.58650846     0.15100
C4209       C  0.60094402  0.40406775  0.52727592    -0.04900
C4210       C  0.59914127  0.41511692  0.54106966    -0.04800
C4211       C  0.58662613  0.41253126  0.55316504    -0.23000
C4212       C  0.57547355  0.39888585  0.55172742     0.19200
C4213       C  0.57676690  0.38781705  0.53777257     0.16400
C4214       C  0.58957873  0.39041906  0.52561940    -0.18000
C4215       C  0.56532053  0.37429236  0.53640889    -0.19900
C4216       C  0.55301070  0.37161397  0.54889490    -0.12400
C4217       C  0.55197070  0.38234894  0.56301652     0.04200
C4218       C  0.56319556  0.39607045  0.56419596    -0.24600
H4219       H  0.60764289  0.42571922  0.54271046     0.09300
H4220       H  0.58576512  0.42116707  0.56374931     0.12900
H4221       H  0.59075454  0.38183624  0.51502010     0.12900
H4222       H  0.56600063  0.36568199  0.52579568     0.12600
H4223       H  0.54453334  0.36093475  0.54768087     0.13200
H4224       H  0.56252542  0.40450422  0.57496461     0.15100
C4225       C  0.62611901  0.45346000  0.45941106    -0.04900
C4226       C  0.61022035  0.45113130  0.45201810    -0.04800
C4227       C  0.60484799  0.46146327  0.43886147    -0.23000
C4228       C  0.61530946  0.47431104  0.43262558     0.19200
C4229       C  0.63114153  0.47725121  0.44016992     0.16400
C4230       C  0.63642339  0.46687929  0.45368024    -0.18000
C4231       C  0.64154730  0.49012070  0.43362338    -0.19900
C4232       C  0.63654832  0.49949301  0.41942087    -0.12400
C4233       C  0.62099494  0.49626369  0.41157912     0.04200
C4234       C  0.61033382  0.48385241  0.41857871    -0.24600
H4235       H  0.60199120  0.44100387  0.45618283     0.09300
H4236       H  0.59264606  0.45909262  0.43325138     0.12900
H4237       H  0.64874826  0.46877889  0.45919538     0.12900
H4238       H  0.65372273  0.49265350  0.43921586     0.12600
H4239       H  0.64501585  0.50897694  0.41433733     0.13200
H4240       H  0.59829223  0.48118222  0.41274594     0.15100
C4241       C  0.72029936  0.38996290  0.57894937    -0.04900
C4242       C  0.70847739  0.40152632  0.58528713    -0.04800
C4243       C  0.69743139  0.40990221  0.57429394    -0.23000
C4244       C  0.69803764  0.40681362  0.55680345     0.19200
C4245       C  0.71058066  0.39592822  0.55036836     0.16400
C4246       C  0.72161524  0.38775182  0.56139866    -0.18000
C4247       C  0.71134920  0.39256653  0.53304606    -0.19900
C4248       C  0.69905638  0.39885255  0.52229762    -0.12400
C4249       C  0.68596586  0.40893632  0.52852555     0.04200
C4250       C  0.68583525  0.41351284  0.54572659    -0.24600
H4251       H  0.70732981  0.40357816  0.59875542     0.09300
H4252       H  0.68802848  0.41829045  0.57952564     0.12900
H4253       H  0.73084877  0.37907657  0.55629664     0.12900
H4254       H  0.72096245  0.38434687  0.52792177     0.12600
H4255       H  0.69933349  0.39520192  0.50911312     0.13200
H4256       H  0.67562966  0.42111814  0.55064857     0.15100
C4257       C  0.74283840  0.36989780  0.33961539    -0.04900
C4258       C  0.74553611  0.38603660  0.33266235    -0.04800
C4259       C  0.73622354  0.39147831  0.31867756    -0.23000
C4260       C  0.72399318  0.38089511  0.31140732     0.19200
C4261       C  0.72169990  0.36440327  0.31791045     0.16400
C4262       C  0.73114509  0.35901153  0.33185214    -0.18000
C4263       C  0.70950757  0.35376133  0.31080699    -0.19900
C4264       C  0.69904115  0.35966411  0.29801134    -0.12400
C4265       C  0.70060882  0.37627890  0.29188664     0.04200
C4266       C  0.71353493  0.38669845  0.29826990    -0.24600
H4267       H  0.75445917  0.39467309  0.33837842     0.09300
H4268       H  0.73824646  0.40414043  0.31386644     0.12900
H4269       H  0.72895316  0.34650430  0.33701388     0.12900
H4270       H  0.70767203  0.34103633  0.31553740     0.12600
H4271       H  0.68933269  0.35131319  0.29321691     0.13200
H4272       H  0.71487057  0.39953522  0.29367721     0.15100
C4273       C  0.79480766  0.31131927  0.37699576    -0.04900
C4274       C  0.79684682  0.29805763  0.38860570    -0.04800
C4275       C  0.80959944  0.28603724  0.38630177    -0.23000
C4276       C  0.82046649  0.28702302  0.37229309     0.19200
C4277       C  0.81794326  0.29986430  0.36018233     0.16400
C4278       C  0.80519767  0.31185383  0.36260279    -0.18000
C4279       C  0.82856467  0.30088872  0.34608346    -0.19900
C4280       C  0.84196270  0.28969576  0.34424593    -0.12400
C4281       C  0.84510916  0.27722506  0.35647249     0.04200
C4282       C  0.83407009  0.27575940  0.37038024    -0.24600
H4283       H  0.78905481  0.29739660  0.39982469     0.09300
H4284       H  0.81123329  0.27624027  0.39569498     0.12900
H4285       H  0.80370125  0.32195141  0.35349043     0.12900
H4286       H  0.82673403  0.31059789  0.33663047     0.12600
H4287       H  0.85015645  0.29111156  0.33338699     0.13200
H4288       H  0.83628570  0.26617697  0.37987410     0.15100
C4289       C  0.71885500  0.37159981  0.41518367    -0.04900
C4290       C  0.71609805  0.38913413  0.41433437    -0.04800
C4291       C  0.70307448  0.39665255  0.42327016    -0.23000
C4292       C  0.69244354  0.38685763  0.43338706     0.19200
C4293       C  0.69444795  0.36912025  0.43397784     0.16400
C4294       C  0.70765742  0.36149661  0.42472469    -0.18000
C4295       C  0.68356552  0.35956210  0.44430996    -0.19900
C4296       C  0.67155861  0.36761938  0.45458208    -0.12400
C4297       C  0.67018675  0.38533550  0.45458631     0.04200
C4298       C  0.68031620  0.39474591  0.44346684    -0.24600
H4299       H  0.72428282  0.39725065  0.40694129     0.09300
H4300       H  0.70161225  0.41024713  0.42261081     0.12900
H4301       H  0.70955820  0.34796447  0.42542418     0.12900
H4302       H  0.68473450  0.34594328  0.44490351     0.12600
H4303       H  0.66387165  0.36006852  0.46302597     0.13200
H4304       H  0.67932087  0.40840805  0.44319978     0.15100
C4305       C  0.84151736  0.40618281  0.46381538    -0.04900
C4306       C  0.83628026  0.41827153  0.45193877    -0.04800
C4307       C  0.82506462  0.41375669  0.43891999    -0.23000
C4308       C  0.81876300  0.39712558  0.43768350     0.19200
C4309       C  0.82395965  0.38505974  0.44970739     0.16400
C4310       C  0.83525694  0.38960174  0.46246680    -0.18000
C4311       C  0.81772108  0.36853994  0.44896678    -0.19900
C4312       C  0.80630546  0.36389861  0.43652071    -0.12400
C4313       C  0.80090985  0.37556578  0.42432835     0.04200
C4314       C  0.80730263  0.39226346  0.42487215    -0.24600
H4315       H  0.84092071  0.43113763  0.45265632     0.09300
H4316       H  0.82126544  0.42327230  0.42989280     0.12900
H4317       H  0.83904448  0.38011567  0.47154868     0.12900
H4318       H  0.82159688  0.35917101  0.45812268     0.12600
H4319       H  0.80171886  0.35098849  0.43643298     0.13200
H4320       H  0.80319016  0.40142600  0.41561797     0.15100
loop_ 
_geom_bond_atom_site_label_1 
_geom_bond_atom_site_label_2 
_geom_bond_distance 
_geom_bond_site_symmetry_2 
_ccdc_geom_bond_type 
O1            C4   1.272       .  A
O1           Cd6   2.493       .  S
C2           O11   1.266       .  A
C2            O7   1.272       .  A
C2         C4313   1.488       .  S
O3            C9   1.274       .  A
O3           Cd6   2.546       .  S
C4           O12   1.268       .  A
C4         C4257   1.487       .  S
C5           O10   1.273       .  A
C5            O8   1.267       .  A
C5         C4273   1.486       .  S
Cd6          O13   2.377       .  S
Cd6          O12   2.445       .  S
Cd6          O11   2.413       .  S
Cd6           O7   2.537       .  S
Cd6          O10   2.513       .  S
Cd6           O8   2.429       .  S
C9           O13   1.264       .  A
C9         C4289   1.486       .  S
O14          C17   1.272       .  A
O14         Cd19   2.522       .  S
C15          O24   1.266       .  A
C15          O20   1.271       .  A
C15        C4209   1.488       .  S
O16          C22   1.271       .  A
O16         Cd19   2.544       .  S
C17          O25   1.265       .  A
C17        C4297   1.485       .  S
C18          O23   1.271       .  A
C18          O21   1.267       .  A
C18        C4225   1.488       .  S
Cd19         O26   2.415       .  S
Cd19         O25   2.415       .  S
Cd19         O24   2.431       .  S
Cd19         O20   2.523       .  S
Cd19         O23   2.518       .  S
Cd19         O21   2.435       .  S
C22          O26   1.262       .  A
C22        C4249   1.477       .  S
O27          C30   1.271       .  A
O27         Cd32   2.504       .  S
C28          O37   1.264       .  A
C28          O33   1.271       .  A
C28        C4241   1.485       .  S
O29          C35   1.272       .  A
O29         Cd32   2.523       .  S
C30          O38   1.267       .  A
C30        C4161   1.487       .  S
C31          O36   1.271       .  A
C31          O34   1.266       .  A
C31        C4177   1.488       .  S
Cd32         O39   2.418       .  S
Cd32         O38   2.443       .  S
Cd32         O37   2.423       .  S
Cd32         O33   2.527       .  S
Cd32         O36   2.513       .  S
Cd32         O34   2.451       .  S
C35          O39   1.265       .  A
C35        C4201   1.486       .  S
O40          C43   1.273       .  A
O40         Cd45   2.500       .  S
C41          O50   1.273       .  A
C41          O46   1.265       .  A
C41        C4193   1.481       .  S
O42          C48   1.274       .  A
O42         Cd45   2.510       .  S
C43          O51   1.268       .  A
C43        C4129   1.488       .  S
C44          O49   1.274       .  A
C44          O47   1.265       .  A
C44        C4305   1.490       .  S
Cd45         O52   2.430       .  S
Cd45         O51   2.443       .  S
Cd45         O50   2.517       .  S
Cd45         O46   2.413       .  S
Cd45         O49   2.544       .  S
Cd45         O47   2.410       .  S
C48          O52   1.267       .  A
C48        C4145   1.487       .  S
O53          C56   1.269       .  A
O53         Cd58   2.509       .  S
C54          O63   1.265       .  A
C54          O59   1.265       .  A
C54        C4121   1.482       .  S
O55          C61   1.265       .  A
O55         Cd58   2.517       .  S
C56          O64   1.267       .  A
C56        C4065   1.487       .  S
C57          O62   1.264       .  A
C57          O60   1.264       .  A
C57        C4081   1.486       .  S
Cd58         O65   2.471       .  S
Cd58         O64   2.456       .  S
Cd58         O63   2.481       .  S
Cd58         O59   2.468       .  S
Cd58         O62   2.511       .  S
Cd58         O60   2.482       .  S
C61          O65   1.263       .  A
C61        C4097   1.485       .  S
O66          C69   1.272       .  A
O66         Cd71   2.509       .  S
C67          O76   1.262       .  A
C67          O72   1.270       .  A
C67        C4049   1.485       .  S
O68          C74   1.268       .  A
O68         Cd71   2.507       .  S
C69          O77   1.266       .  A
C69        C4025   1.486       .  S
C70          O75   1.271       .  A
C70          O73   1.266       .  A
C70        C4113   1.479       .  S
Cd71         O78   2.460       .  S
Cd71         O77   2.430       .  S
Cd71         O76   2.433       .  S
Cd71         O72   2.536       .  S
Cd71         O75   2.491       .  S
Cd71         O73   2.440       .  S
C74          O78   1.265       .  A
C74        C4033   1.486       .  S
O79          C82   1.272       .  A
O79         Cd84   2.533       .  S
C80          O89   1.267       .  A
C80          O85   1.273       .  A
C80        C3977   1.494       .  S
O81          C87   1.272       .  A
O81         Cd84   2.486       .  S
C82          O90   1.261       .  A
C82        C4105   1.486       .  S
C83          O88   1.268       .  A
C83          O86   1.265       .  A
C83        C3985   1.477       .  S
Cd84         O91   2.402       .  S
Cd84         O90   2.435       .  S
Cd84         O89   2.434       .  S
Cd84         O85   2.543       .  S
Cd84         O88   2.500       .  S
Cd84         O86   2.441       .  S
C87          O91   1.267       .  A
C87        C4009   1.478       .  S
O92          C95   1.272       .  A
O92         Cd97   2.528       .  S
C93         O102   1.264       .  A
C93          O98   1.272       .  A
C93        C4001   1.476       .  S
O94         C100   1.271       .  A
O94         Cd97   2.529       .  S
C95         O103   1.265       .  A
C95        C3945   1.486       .  S
C96         O101   1.273       .  A
C96          O99   1.267       .  A
C96        C3953   1.482       .  S
Cd97        O104   2.402       .  S
Cd97        O103   2.410       .  S
Cd97        O102   2.400       .  S
Cd97         O98   2.513       .  S
Cd97        O101   2.511       .  S
Cd97         O99   2.420       .  S
C100        O104   1.262       .  A
C100       C4057   1.476       .  S
O105        C108   1.271       .  A
O105       Cd110   2.506       .  S
C106        O115   1.267       .  A
C106        O111   1.271       .  A
C106       C3873   1.485       .  S
O107        C113   1.272       .  A
O107       Cd110   2.540       .  S
C108        O116   1.265       .  A
C108       C3929   1.476       .  S
C109        O114   1.272       .  A
C109        O112   1.267       .  A
C109       C3889   1.482       .  S
Cd110       O117   2.405       .  S
Cd110       O116   2.410       .  S
Cd110       O115   2.425       .  S
Cd110       O111   2.506       .  S
Cd110       O114   2.511       .  S
Cd110       O112   2.423       .  S
C113        O117   1.263       .  A
C113       C3913   1.484       .  S
O118        C121   1.272       .  A
O118       Cd123   2.528       .  S
C119        O128   1.264       .  A
C119        O124   1.272       .  A
C119       C3905   1.489       .  S
O120        C126   1.272       .  A
O120       Cd123   2.535       .  S
C121        O129   1.267       .  A
C121       C3825   1.494       .  S
C122        O127   1.270       .  A
C122        O125   1.267       .  A
C122       C3841   1.486       .  S
Cd123       O130   2.392       .  S
Cd123       O129   2.451       .  S
Cd123       O128   2.428       .  S
Cd123       O124   2.533       .  S
Cd123       O127   2.502       .  S
Cd123       O125   2.449       .  S
C126        O130   1.264       .  A
C126       C3857   1.484       .  S
O131        C134   1.272       .  A
O131       Cd136   2.502       .  S
C132        O141   1.264       .  A
C132        O137   1.272       .  A
C132       C3865   1.481       .  S
O133        C139   1.273       .  A
O133       Cd136   2.497       .  S
C134        O142   1.267       .  A
C134       C3777   1.484       .  S
C135        O140   1.273       .  A
C135        O138   1.264       .  A
C135       C3817   1.488       .  S
Cd136       O143   2.442       .  S
Cd136       O142   2.421       .  S
Cd136       O141   2.402       .  S
Cd136       O137   2.516       .  S
Cd136       O140   2.526       .  S
Cd136       O138   2.422       .  S
C139        O143   1.268       .  A
C139       C3793   1.486       .  S
O144        C147   1.273       .  A
O144       Cd149   2.516       .  S
C145        O154   1.263       .  A
C145        O150   1.272       .  A
C145       C3809   1.486       .  S
O146        C152   1.271       .  A
O146       Cd149   2.528       .  S
C147        O155   1.268       .  A
C147       C3753   1.491       .  S
C148        O153   1.272       .  A
C148        O151   1.266       .  A
C148       C3761   1.483       .  S
Cd149       O156   2.419       .  S
Cd149       O155   2.440       .  S
Cd149       O154   2.410       .  S
Cd149       O150   2.541       .  S
Cd149       O153   2.497       .  S
Cd149       O151   2.436       .  S
C152        O156   1.265       .  A
C152       C3921   1.485       .  S
O157        C160   1.263       .  A
O157       Cd162   2.498       .  S
C158        O167   1.266       .  A
C158        O163   1.269       .  A
C158       C3681   1.489       .  S
O159        C165   1.264       .  A
O159       Cd162   2.459       .  S
C160        O168   1.264       .  A
C160       C3729   1.484       .  S
C161        O166   1.269       .  A
C161        O164   1.263       .  A
C161       C3705   1.492       .  S
Cd162       O169   2.501       .  S
Cd162       O168   2.484       .  S
Cd162       O167   2.469       .  S
Cd162       O163   2.506       .  S
Cd162       O166   2.549       .  S
Cd162       O164   2.455       .  S
C165        O169   1.268       .  A
C165       C3721   1.485       .  S
O170        C173   1.272       .  A
O170       Cd175   2.525       .  S
C171        O180   1.262       .  A
C171        O176   1.268       .  A
C171       C3665   1.483       .  S
O172        C178   1.272       .  A
O172       Cd175   2.522       .  S
C173        O181   1.267       .  A
C173       C3633   1.492       .  S
C174        O179   1.270       .  A
C174        O177   1.264       .  A
C174       C3657   1.490       .  S
Cd175       O182   2.421       .  S
Cd175       O181   2.451       .  S
Cd175       O180   2.471   1_455  S
Cd175       O176   2.514   1_455  S
Cd175       O179   2.520   1_455  S
Cd175       O177   2.471   1_455  S
C178        O182   1.265       .  A
C178       C3737   1.480       .  S
O183        C186   1.262       .  A
O183       Cd188   2.486       .  S
C184        O193   1.266       .  A
C184        O189   1.270       .  A
C184       C3585   1.485       .  S
O185        C191   1.265       .  A
O185       Cd188   2.490       .  S
C186        O194   1.264       .  A
C186       C3617   1.485       .  S
C187        O192   1.268       .  A
C187        O190   1.264       .  A
C187       C3601   1.491       .  S
Cd188       O195   2.506       .  S
Cd188       O194   2.503       .  S
Cd188       O193   2.425       .  S
Cd188       O189   2.514       .  S
Cd188       O192   2.519       .  S
Cd188       O190   2.485       .  S
C191        O195   1.269       .  A
C191       C3673   1.489       .  S
O196        C199   1.271   1_455  A
O196       Cd201   2.531       .  S
C197        O206   1.261       .  A
C197        O202   1.265       .  A
C197       C3713   1.483       .  S
O198        C204   1.271       .  A
O198       Cd201   2.497   1_655  S
C199        O207   1.265       .  A
C199       C3553   1.487       .  S
C200        O205   1.269       .  A
C200        O203   1.263       .  A
C200       C3569   1.491       .  S
Cd201       O208   2.449   1_455  S
Cd201       O207   2.428   1_455  S
Cd201       O206   2.470       .  S
Cd201       O202   2.511       .  S
Cd201       O205   2.549       .  S
Cd201       O203   2.443       .  S
C204        O208   1.265       .  A
C204       C3625   1.484       .  S
O209        C212   1.260       .  A
O209       Cd214   2.453       .  S
C210        O219   1.266       .  A
C210        O215   1.272       .  A
C210       C3505   1.489       .  S
O211        C217   1.266       .  A
O211       Cd214   2.440       .  S
C212        O220   1.266       .  A
C212       C3537   1.483       .  S
C213        O218   1.269       .  A
C213        O216   1.261       .  A
C213       C4073   1.483       .  S
Cd214       O221   2.498       .  S
Cd214       O220   2.522       .  S
Cd214       O219   2.424       .  S
Cd214       O215   2.528       .  S
Cd214       O218   2.547       .  S
Cd214       O216   2.415       .  S
C217        O221   1.272       .  A
C217       C3529   1.481       .  S
O222        C225   1.270       .  A
O222       Cd227   2.526       .  S
C223        O232   1.264       .  A
C223        O228   1.263       .  A
C223       C3521   1.484       .  S
O224        C230   1.268       .  A
O224       Cd227   2.503       .  S
C225        O233   1.265       .  A
C225       C3465   1.489       .  S
C226        O231   1.270       .  A
C226        O229   1.263       .  A
C226       C3481   1.487       .  S
Cd227       O234   2.476       .  S
Cd227       O233   2.438       .  S
Cd227       O232   2.494       .  S
Cd227       O228   2.476       .  S
Cd227       O231   2.524       .  S
Cd227       O229   2.450       .  S
C230        O234   1.264       .  A
C230       C3497   1.487       .  S
O235        C238   1.263       .  A
O235       Cd240   2.457       .  S
C236        O245   1.267       .  A
C236        O241   1.272       .  A
C236       C4185   1.487       .  S
O237        C243   1.272       .  A
O237       Cd240   2.513       .  S
C238        O246   1.270       .  A
C238       C3489   1.484       .  S
C239        O244   1.269       .  A
C239        O242   1.265       .  A
C239       C3425   1.486       .  S
Cd240       O247   2.417       .  S
Cd240       O246   2.518       .  S
Cd240       O245   2.429       .  S
Cd240       O241   2.520       .  S
Cd240       O244   2.509       .  S
Cd240       O242   2.456       .  S
C243        O247   1.265       .  A
C243       C3441   1.480       .  S
O248        C251   1.269       .  A
O248       Cd253   2.507       .  S
C249        O258   1.264       .  A
C249        O254   1.264       .  A
C249       C3449   1.482       .  S
O250        C256   1.266       .  A
O250       Cd253   2.467       .  S
C251        O259   1.265       .  A
C251       C3993   1.483       .  S
C252        O257   1.268       .  A
C252        O255   1.265       .  A
C252       C4217   1.487       .  S
Cd253       O260   2.482       .  S
Cd253       O259   2.434       .  S
Cd253       O258   2.488       .  S
Cd253       O254   2.462       .  S
Cd253       O257   2.510       .  S
Cd253       O255   2.457       .  S
C256        O260   1.265       .  A
C256       C3545   1.482       .  S
O261        C264   1.269       .  A
O261       Cd266   2.485       .  S
C262        O271   1.263       .  A
C262        O267   1.264       .  A
C262       C3409   1.483       .  S
O263        C269   1.269       .  A
O263       Cd266   2.541       .  S
C264        O272   1.266       .  A
C264       C3369   1.482       .  S
C265        O270   1.263       .  A
C265        O268   1.268       .  A
C265       C3401   1.484       .  S
Cd266       O273   2.445       .  S
Cd266       O272   2.445       .  S
Cd266       O271   2.474       .  S
Cd266       O267   2.497       .  S
Cd266       O270   2.481       .  S
Cd266       O268   2.486       .  S
C269        O273   1.263       .  A
C269       C3385   1.490       .  S
O274        C277   1.273       .  A
O274       Cd279   2.520       .  S
C275        O284   1.263       .  A
C275        O280   1.269       .  A
C275       C3393   1.481       .  S
O276        C282   1.274       .  A
O276       Cd279   2.527   1_565  S
C277        O285   1.267       .  A
C277       C3313   1.491   1_545  S
C278        O283   1.272       .  A
C278        O281   1.264       .  A
C278       C3329   1.486       .  S
Cd279       O286   2.410   1_545  S
Cd279       O285   2.445       .  S
Cd279       O284   2.435       .  S
Cd279       O280   2.523       .  S
Cd279       O283   2.536       .  S
Cd279       O281   2.403       .  S
C282        O286   1.266       .  A
C282       C3353   1.484       .  S
O287        C290   1.264       .  A
O287       Cd292   2.521       .  S
C288        O297   1.265       .  A
C288        O293   1.271       .  A
C288       C3769   1.484       .  S
O289        C295   1.263       .  A
O289       Cd292   2.435       .  S
C290        O298   1.262       .  A
C290       C3345   1.487       .  S
C291        O296   1.269       .  A
C291        O294   1.265       .  A
C291       C3281   1.486       .  S
Cd292       O299   2.496       .  S
Cd292       O298   2.467       .  S
Cd292       O297   2.436       .  S
Cd292       O293   2.506       .  S
Cd292       O296   2.511       .  S
Cd292       O294   2.443       .  S
C295        O299   1.269       .  A
C295       C3305   1.478       .  S
O300        C303   1.269       .  A
O300       Cd305   2.515       .  S
C301        O310   1.261   1_565  A
C301        O306   1.264       .  A
C301       C3297   1.482       .  S
O302        C308   1.269       .  A
O302       Cd305   2.490       .  S
C303        O311   1.266       .  A
C303       C3265   1.483       .  S
C304        O309   1.266       .  A
C304        O307   1.263       .  A
C304       C3785   1.483       .  S
Cd305       O312   2.452       .  S
Cd305       O311   2.436       .  S
Cd305       O310   2.478       .  S
Cd305       O306   2.497   1_545  S
Cd305       O309   2.514   1_545  S
Cd305       O307   2.453   1_545  S
C308        O312   1.266       .  A
C308       C3417   1.482       .  S
O313        C316   1.273       .  A
O313       Cd318   2.537       .  S
C314        O323   1.267       .  A
C314        O319   1.273       .  A
C314       C3473   1.487       .  S
O315        C321   1.271       .  A
O315       Cd318   2.506       .  S
C316        O324   1.264       .  A
C316       C3249   1.479       .  S
C317        O322   1.272       .  A
C317        O320   1.267       .  A
C317       C3273   1.486       .  S
Cd318       O325   2.429       .  S
Cd318       O324   2.377       .  S
Cd318       O323   2.421       .  S
Cd318       O319   2.512       .  S
Cd318       O322   2.510       .  S
Cd318       O320   2.423       .  S
C321        O325   1.266       .  A
C321       C3241   1.485       .  S
O326        C329   1.273       .  A
O326       Cd331   2.534       .  S
C327        O336   1.262       .  A
C327        O332   1.273       .  A
C327       C3233   1.481       .  S
O328        C334   1.271       .  A
O328       Cd331   2.531       .  S
C329        O337   1.266       .  A
C329       C3201   1.490       .  S
C330        O335   1.272       .  A
C330        O333   1.269       .  A
C330       C3513   1.487       .  S
Cd331       O338   2.414       .  S
Cd331       O337   2.422       .  S
Cd331       O336   2.393       .  S
Cd331       O332   2.542       .  S
Cd331       O335   2.490       .  S
Cd331       O333   2.450       .  S
C334        O338   1.265       .  A
C334       C3217   1.487       .  S
O339        C342   1.272       .  A
O339       Cd344   2.506       .  S
C340        O349   1.264       .  A
C340        O345   1.273       .  A
C340       C3225   1.486       .  S
O341        C347   1.272       .  A
O341       Cd344   2.506       .  S
C342        O350   1.267       .  A
C342       C3153   1.490       .  S
C343        O348   1.273       .  A
C343        O346   1.264       .  A
C343       C3185   1.488       .  S
Cd344       O351   2.461       .  S
Cd344       O350   2.459       .  S
Cd344       O349   2.394       .  S
Cd344       O345   2.543       .  S
Cd344       O348   2.536       .  S
Cd344       O346   2.406       .  S
C347        O351   1.267       .  A
C347       C3177   1.490       .  S
O352        C355   1.272       .  A
O352       Cd357   2.505       .  S
C353        O362   1.264       .  A
C353        O358   1.272       .  A
C353       C3193   1.486       .  S
O354        C360   1.272       .  A
O354       Cd357   2.517       .  S
C355        O363   1.268       .  A
C355       C3377   1.490       .  S
C356        O361   1.271       .  A
C356        O359   1.267       .  A
C356       C3145   1.485       .  S
Cd357       O364   2.391       .  S
Cd357       O363   2.452       .  S
Cd357       O362   2.404       .  S
Cd357       O358   2.540       .  S
Cd357       O361   2.509       .  S
Cd357       O359   2.422       .  S
C360        O364   1.265       .  A
C360       C3257   1.483       .  S
O365        C368   1.271       .  A
O365       Cd370   2.491       .  S
C366        O375   1.262       .  A
C366        O371   1.266       .  A
C366       C3129   1.483       .  S
O367        C373   1.272       .  A
O367       Cd370   2.528       .  S
C368        O376   1.268       .  A
C368       C3089   1.489       .  S
C369        O374   1.269       .  A
C369        O372   1.263       .  A
C369       C3593   1.487       .  S
Cd370       O377   2.426       .  S
Cd370       O376   2.469       .  S
Cd370       O375   2.479       .  S
Cd370       O371   2.503       .  S
Cd370       O374   2.533       .  S
Cd370       O372   2.450       .  S
C373        O377   1.264       .  A
C373       C3113   1.485       .  S
O378        C381   1.272   1_556  A
O378       Cd383   2.523       .  S
C379        O388   1.266       .  A
C379        O384   1.260       .  A
C379       C3073   1.485       .  S
O380        C386   1.269       .  A
O380       Cd383   2.532       .  S
C381        O389   1.267       .  A
C381       C3649   1.492       .  S
C382        O387   1.265       .  A
C382        O385   1.271       .  A
C382       C3121   1.481       .  S
Cd383       O390   2.446       .  S
Cd383       O389   2.451   1_556  S
Cd383       O388   2.528       .  S
Cd383       O384   2.466       .  S
Cd383       O387   2.449   1_556  S
Cd383       O385   2.500   1_556  S
C386        O390   1.263       .  A
C386       C3057   1.488       .  S
O391        C394   1.269       .  A
O391       Cd396   2.489       .  S
C392        O401   1.261       .  A
C392        O397   1.266       .  A
C392       C3049   1.484       .  S
O393        C399   1.270       .  A
O393       Cd396   2.492       .  S
C394        O402   1.267       .  A
C394       C3009   1.487       .  S
C395        O400   1.269       .  A
C395        O398   1.263       .  A
C395       C3025   1.492       .  S
Cd396       O403   2.457       .  S
Cd396       O402   2.473       .  S
Cd396       O401   2.477       .  S
Cd396       O397   2.507       .  S
Cd396       O400   2.535       .  S
Cd396       O398   2.466       .  S
C399        O403   1.265       .  A
C399       C3081   1.482       .  S
O404        C407   1.266       .  A
O404       Cd409   2.514       .  S
C405        O414   1.267       .  A
C405        O410   1.270   1_556  A
C405       C2977   1.491       .  S
O406        C412   1.263       .  A
O406       Cd409   2.476   1_556  S
C407        O415   1.262       .  A
C407       C3105   1.487       .  S
C408        O413   1.268       .  A
C408        O411   1.264       .  A
C408       C3001   1.484       .  S
Cd409       O416   2.505   1_554  S
Cd409       O415   2.474       .  S
Cd409       O414   2.475   1_554  S
Cd409       O410   2.499       .  S
Cd409       O413   2.514       .  S
Cd409       O411   2.452       .  S
C412        O416   1.266       .  A
C412       C3041   1.484       .  S
O417        C420   1.267       .  A
O417       Cd422   2.504       .  S
C418        O427   1.267       .  A
C418        O423   1.270       .  A
C418       C2929   1.488       .  S
O419        C425   1.265       .  A
O419       Cd422   2.407       .  S
C420        O428   1.263       .  A
C420       C2969   1.480       .  S
C421        O426   1.270       .  A
C421        O424   1.264       .  A
C421       C3209   1.487       .  S
Cd422       O429   2.518       .  S
Cd422       O428   2.470       .  S
Cd422       O427   2.459       .  S
Cd422       O423   2.497       .  S
Cd422       O426   2.532       .  S
Cd422       O424   2.435       .  S
C425        O429   1.273       .  A
C425       C2945   1.480       .  S
O430        C433   1.266       .  A
O430       Cd435   2.530   1_565  S
C431        O440   1.266       .  A
C431        O436   1.273       .  A
C431       C3169   1.491       .  S
O432        C438   1.270       .  A
O432       Cd435   2.548   1_565  S
C433        O441   1.261       .  A
C433       C2921   1.490       .  S
C434        O439   1.271       .  A
C434        O437   1.264       .  A
C434       C2961   1.482       .  S
Cd435       O442   2.434   1_545  S
Cd435       O441   2.488   1_545  S
Cd435       O440   2.444       .  S
Cd435       O436   2.530       .  S
Cd435       O439   2.508       .  S
Cd435       O437   2.440       .  S
C438        O442   1.262       .  A
C438       C2897   1.487       .  S
O443        C446   1.270       .  A
O443       Cd448   2.507       .  S
C444        O453   1.265       .  A
C444        O449   1.263       .  A
C444       C2881   1.485       .  S
O445        C451   1.265       .  A
O445       Cd448   2.526       .  S
C446        O454   1.268       .  A
C446       C2849   1.488       .  S
C447        O452   1.264       .  A
C447        O450   1.266       .  A
C447       C2913   1.488       .  S
Cd448       O455   2.493       .  S
Cd448       O454   2.454       .  S
Cd448       O453   2.502       .  S
Cd448       O449   2.471       .  S
Cd448       O452   2.496       .  S
Cd448       O450   2.494       .  S
C451        O455   1.264       .  A
C451       C2865   1.491       .  S
O456        C459   1.270       .  A
O456       Cd461   2.514       .  S
C457        O466   1.265       .  A
C457        O462   1.263       .  A
C457       C2953   1.483       .  S
O458        C464   1.263   1_545  A
O458       Cd461   2.474       .  S
C459        O467   1.267   1_545  A
C459       C2825   1.490   1_545  S
C460        O465   1.267       .  A
C460        O463   1.265       .  A
C460       C2833   1.487       .  S
Cd461       O468   2.507   1_545  S
Cd461       O467   2.458   1_545  S
Cd461       O466   2.490       .  S
Cd461       O462   2.461       .  S
Cd461       O465   2.509       .  S
Cd461       O463   2.471       .  S
C464        O468   1.264       .  A
C464       C2889   1.486       .  S
O469        C472   1.262       .  A
O469       Cd474   2.494       .  S
C470        O479   1.266       .  A
C470        O475   1.270       .  A
C470       C2777   1.490       .  S
O471        C477   1.269       .  A
O471       Cd474   2.491   1_556  S
C472        O480   1.266       .  A
C472       C2801   1.487       .  S
C473        O478   1.267       .  A
C473        O476   1.264       .  A
C473       C3321   1.488       .  S
Cd474       O481   2.440   1_554  S
Cd474       O480   2.495       .  S
Cd474       O479   2.450   1_554  S
Cd474       O475   2.528   1_554  S
Cd474       O478   2.511       .  S
Cd474       O476   2.477       .  S
C477        O481   1.265       .  A
C477       C2793   1.478       .  S
O482        C485   1.271       .  A
O482       Cd487   2.523       .  S
C483        O492   1.260       .  A
C483        O488   1.267       .  A
C483       C2753   1.481       .  S
O484        C490   1.271       .  A
O484       Cd487   2.508       .  S
C485        O493   1.267       .  A
C485       C3289   1.489       .  S
C486        O491   1.267       .  A
C486        O489   1.262       .  A
C486       C3689   1.487       .  S
Cd487       O494   2.449       .  S
Cd487       O493   2.439       .  S
Cd487       O492   2.454       .  S
Cd487       O488   2.515       .  S
Cd487       O491   2.527       .  S
Cd487       O489   2.465       .  S
C490        O494   1.266       .  A
C490       C2809   1.479       .  S
O495        C498   1.270       .  A
O495       Cd500   2.525       .  S
C496        O505   1.261       .  A
C496        O501   1.266       .  A
C496       C2785   1.481       .  S
O497        C503   1.268       .  A
O497       Cd500   2.508       .  S
C498        O506   1.267       .  A
C498       C2873   1.490       .  S
C499        O504   1.266       .  A
C499        O502   1.264       .  A
C499       C2729   1.490       .  S
Cd500       O507   2.459       .  S
Cd500       O506   2.437       .  S
Cd500       O505   2.458       .  S
Cd500       O501   2.504       .  S
Cd500       O504   2.516       .  S
Cd500       O502   2.488       .  S
C503        O507   1.264       .  A
C503       C2737   1.484       .  S
O508        C511   1.264       .  A
O508       Cd513   2.504       .  S
C509        O518   1.266       .  A
C509        O514   1.271   1_554  A
C509       C3577   1.494       .  S
O510        C516   1.264       .  A
O510       Cd513   2.473   1_554  S
C511        O519   1.264       .  A
C511       C2745   1.487       .  S
C512        O517   1.267       .  A
C512        O515   1.263       .  A
C512       C2817   1.489       .  S
Cd513       O520   2.490       .  S
Cd513       O519   2.482       .  S
Cd513       O518   2.462   1_556  S
Cd513       O514   2.537       .  S
Cd513       O517   2.542       .  S
Cd513       O515   2.456       .  S
C516        O520   1.266   1_554  A
C516       C2761   1.483       .  S
O521        C524   1.270       .  A
O521       Cd526   2.524       .  S
C522        O531   1.266       .  A
C522        O527   1.262       .  A
C522       C2705   1.488       .  S
O523        C529   1.267       .  A
O523       Cd526   2.509       .  S
C524        O532   1.266       .  A
C524       C2721   1.491       .  S
C525        O530   1.265       .  A
C525        O528   1.269       .  A
C525       C2689   1.477       .  S
Cd526       O533   2.451       .  S
Cd526       O532   2.456       .  S
Cd526       O531   2.514       .  S
Cd526       O527   2.487       .  S
Cd526       O530   2.431       .  S
Cd526       O528   2.496       .  S
C529        O533   1.264       .  A
C529       C3937   1.484       .  S
O534        C537   1.271       .  A
O534       Cd539   2.487       .  S
C535        O544   1.268       .  A
C535        O540   1.261       .  A
C535       C2681   1.480       .  S
O536        C542   1.271       .  A
O536       Cd539   2.508       .  S
C537        O545   1.269       .  A
C537       C4041   1.485       .  S
C538        O543   1.270       .  A
C538        O541   1.262       .  A
C538       C2985   1.489       .  S
Cd539       O546   2.463       .  S
Cd539       O545   2.446       .  S
Cd539       O544   2.526       .  S
Cd539       O540   2.439       .  S
Cd539       O543   2.552       .  S
Cd539       O541   2.444       .  S
C542        O546   1.265       .  A
C542       C2713   1.484       .  S
O547        C550   1.270       .  A
O547       Cd552   2.502       .  S
C548        O557   1.267       .  A
C548        O553   1.271       .  A
C548       C2641   1.487       .  S
O549        C555   1.271       .  A
O549       Cd552   2.521       .  S
C550        O558   1.263       .  A
C550       C2697   1.475       .  S
C551        O556   1.274       .  A
C551        O554   1.265       .  A
C551       C2665   1.486       .  S
Cd552       O559   2.448       .  S
Cd552       O558   2.450       .  S
Cd552       O557   2.449       .  S
Cd552       O553   2.501       .  S
Cd552       O556   2.526       .  S
Cd552       O554   2.399       .  S
C555        O559   1.265       .  A
C555       C2769   1.489       .  S
O560        C563   1.273       .  A
O560       Cd565   2.540       .  S
C561        O570   1.264       .  A
C561        O566   1.275       .  A
C561       C2657   1.483       .  S
O562        C568   1.271       .  A
O562       Cd565   2.508       .  S
C563        O571   1.267       .  A
C563       C3033   1.494       .  S
C564        O569   1.264       .  A
C564        O567   1.271       .  A
C564       C2673   1.472       .  S
Cd565       O572   2.446       .  S
Cd565       O571   2.439       .  S
Cd565       O570   2.405       .  S
Cd565       O566   2.521       .  S
Cd565       O569   2.423       .  S
Cd565       O567   2.508       .  S
C568        O572   1.267       .  A
C568       C2625   1.484       .  S
O573        C576   1.271       .  A
O573       Cd578   2.516       .  S
C574        O583   1.262       .  A
C574        O579   1.266       .  A
C574       C2617   1.486       .  S
O575        C581   1.268       .  A
O575       Cd578   2.493       .  S
C576        O584   1.266       .  A
C576       C2561   1.489       .  S
C577        O582   1.262       .  A
C577        O580   1.265       .  A
C577       C2601   1.482       .  S
Cd578       O585   2.465       .  S
Cd578       O584   2.454       .  S
Cd578       O583   2.458       .  S
Cd578       O579   2.525       .  S
Cd578       O582   2.471       .  S
Cd578       O580   2.498       .  S
C581        O585   1.266       .  A
C581       C2577   1.483       .  S
O586        C589   1.270   1_554  A
O586       Cd591   2.516       .  S
C587        O596   1.262       .  A
C587        O592   1.265       .  A
C587       C2593   1.482       .  S
O588        C594   1.271       .  A
O588       Cd591   2.536   1_556  S
C589        O597   1.267       .  A
C589       C2513   1.488       .  S
C590        O595   1.269       .  A
C590        O593   1.263       .  A
C590       C2529   1.488       .  S
Cd591       O598   2.441   1_554  S
Cd591       O597   2.442   1_554  S
Cd591       O596   2.476       .  S
Cd591       O592   2.500       .  S
Cd591       O595   2.539       .  S
Cd591       O593   2.454       .  S
C594        O598   1.265       .  A
C594       C2545   1.489       .  S
O599        C602   1.274       .  A
O599       Cd604   2.529       .  S
C600        O609   1.261       .  A
C600        O605   1.269       .  A
C600       C2553   1.489       .  S
O601        C607   1.272       .  A
O601       Cd604   2.531       .  S
C602        O610   1.266       .  A
C602       C2465   1.488       .  S
C603        O608   1.261       .  A
C603        O606   1.267       .  A
C603       C2497   1.484       .  S
Cd604       O611   2.424       .  S
Cd604       O610   2.419       .  S
Cd604       O609   2.437       .  S
Cd604       O605   2.541       .  S
Cd604       O608   2.480       .  S
Cd604       O606   2.503       .  S
C607        O611   1.265       .  A
C607       C2481   1.489       .  S
O612        C615   1.272   1_556  A
O612       Cd617   2.507       .  S
C613        O622   1.264       .  A
C613        O618   1.270       .  A
C613       C2505   1.480       .  S
O614        C620   1.273       .  A
O614       Cd617   2.517   1_554  S
C615        O623   1.266       .  A
C615       C2433   1.483       .  S
C616        O621   1.272       .  A
C616        O619   1.264       .  A
C616       C2449   1.484       .  S
Cd617       O624   2.421   1_556  S
Cd617       O623   2.414   1_556  S
Cd617       O622   2.439       .  S
Cd617       O618   2.506       .  S
Cd617       O621   2.515       .  S
Cd617       O619   2.424       .  S
C620        O624   1.267       .  A
C620       C2609   1.486       .  S
O625        C628   1.268       .  A
O625       Cd630   2.526       .  S
C626        O635   1.265       .  A
C626        O631   1.267       .  A
C626       C2417   1.483       .  S
O627        C633   1.265       .  A
O627       Cd630   2.484       .  S
C628        O636   1.263       .  A
C628       C3337   1.486       .  S
C629        O634   1.264       .  A
C629        O632   1.263       .  A
C629       C2409   1.477       .  S
Cd630       O637   2.461       .  S
Cd630       O636   2.440       .  S
Cd630       O635   2.456       .  S
Cd630       O631   2.491       .  S
Cd630       O634   2.484       .  S
Cd630       O632   2.445       .  S
C633        O637   1.265       .  A
C633       C2441   1.480       .  S
O638        C641   1.271       .  A
O638       Cd643   2.505       .  S
C639        O648   1.261       .  A
C639        O644   1.267       .  A
C639       C2401   1.479       .  S
O640        C646   1.270       .  A
O640       Cd643   2.520       .  S
C641        O649   1.267       .  A
C641       C2377   1.485       .  S
C642        O647   1.267       .  A
C642        O645   1.262       .  A
C642       C3361   1.481       .  S
Cd643       O650   2.426       .  S
Cd643       O649   2.423       .  S
Cd643       O648   2.428       .  S
Cd643       O644   2.518       .  S
Cd643       O647   2.515       .  S
Cd643       O645   2.442       .  S
C646        O650   1.264       .  A
C646       C2385   1.482       .  S
O651        C654   1.273       .  A
O651       Cd656   2.511       .  S
C652        O661   1.262       .  A
C652        O657   1.273       .  A
C652       C2353   1.484       .  S
O653        C659   1.271       .  A
O653       Cd656   2.497       .  S
C654        O662   1.267       .  A
C654       C2585   1.487       .  S
C655        O660   1.270       .  A
C655        O658   1.267       .  A
C655       C2345   1.483       .  S
Cd656       O663   2.431       .  S
Cd656       O662   2.418       .  S
Cd656       O661   2.395       .  S
Cd656       O657   2.538       .  S
Cd656       O660   2.485       .  S
Cd656       O658   2.457       .  S
C659        O663   1.265       .  A
C659       C2425   1.480       .  S
O664        C667   1.268       .  A
O664       Cd669   2.528       .  S
C665        O674   1.262       .  A
C665        O670   1.271       .  A
C665       C2305   1.486       .  S
O666        C672   1.269       .  A
O666       Cd669   2.523       .  S
C667        O675   1.262       .  A
C667       C2393   1.484       .  S
C668        O673   1.270       .  A
C668        O671   1.266       .  A
C668       C2329   1.484       .  S
Cd669       O676   2.410       .  S
Cd669       O675   2.433       .  S
Cd669       O674   2.412       .  S
Cd669       O670   2.541       .  S
Cd669       O673   2.511       .  S
Cd669       O671   2.431       .  S
C672        O676   1.262       .  A
C672       C2361   1.481       .  S
O677        C680   1.271       .  A
O677       Cd682   2.501       .  S
C678        O687   1.267       .  A
C678        O683   1.272       .  A
C678       C2289   1.483       .  S
O679        C685   1.272       .  A
O679       Cd682   2.518       .  S
C680        O688   1.266       .  A
C680       C2337   1.485       .  S
C681        O686   1.261       .  A
C681        O684   1.272       .  A
C681       C2273   1.475       .  S
Cd682       O689   2.430       .  S
Cd682       O688   2.432       .  S
Cd682       O687   2.418       .  S
Cd682       O683   2.514       .  S
Cd682       O686   2.401       .  S
Cd682       O684   2.531       .  S
C685        O689   1.266       .  A
C685       C4265   1.486       .  S
O690        C693   1.274       .  A
O690       Cd695   2.520       .  S
C691        O700   1.264       .  A
C691        O696   1.273       .  A
C691       C2257   1.486       .  S
O692        C698   1.273       .  A
O692       Cd695   2.549       .  S
C693        O701   1.268       .  A
C693       C4233   1.492       .  S
C694        O699   1.272       .  A
C694        O697   1.267       .  A
C694       C3881   1.483       .  S
Cd695       O702   2.385       .  S
Cd695       O701   2.437       .  S
Cd695       O700   2.408       .  S
Cd695       O696   2.542       .  S
Cd695       O699   2.521       .  S
Cd695       O697   2.419       .  S
C698        O702   1.264       .  A
C698       C2297   1.485       .  S
O703        C706   1.269       .  A
O703       Cd708   2.487       .  S
C704        O713   1.265       .  A
C704        O709   1.269       .  A
C704       C2281   1.483       .  S
O705        C711   1.271       .  A
O705       Cd708   2.517       .  S
C706        O714   1.267       .  A
C706       C2993   1.486       .  S
C707        O712   1.270       .  A
C707        O710   1.265       .  A
C707       C2313   1.486       .  S
Cd708       O715   2.426       .  S
Cd708       O714   2.460       .  S
Cd708       O713   2.451       .  S
Cd708       O709   2.497       .  S
Cd708       O712   2.518       .  S
Cd708       O710   2.432       .  S
C711        O715   1.264       .  A
C711       C2241   1.482       .  S
O716        C719   1.272       .  A
O716       Cd721   2.517       .  S
C717        O726   1.266       .  A
C717        O722   1.273       .  A
C717       C3849   1.488       .  S
O718        C724   1.272       .  A
O718       Cd721   2.535       .  S
C719        O727   1.264       .  A
C719       C2249   1.477       .  S
C720        O725   1.273       .  A
C720        O723   1.268       .  A
C720       C3097   1.487       .  S
Cd721       O728   2.428       .  S
Cd721       O727   2.415       .  S
Cd721       O726   2.408       .  S
Cd721       O722   2.531       .  S
Cd721       O725   2.508       .  S
Cd721       O723   2.440       .  S
C724        O728   1.265       .  A
C724       C2265   1.490       .  S
O729        C732   1.271       .  A
O729       Cd734   2.502       .  S
C730        O739   1.262       .  A
C730        O735   1.268       .  A
C730       C2233   1.476       .  S
O731        C737   1.272       .  A
O731       Cd734   2.502       .  S
C732        O740   1.268       .  A
C732       C2193   1.485       .  S
C733        O738   1.270       .  A
C733        O736   1.263       .  A
C733       C2857   1.484       .  S
Cd734       O741   2.450       .  S
Cd734       O740   2.430       .  S
Cd734       O739   2.432       .  S
Cd734       O735   2.512       .  S
Cd734       O738   2.532       .  S
Cd734       O736   2.429       .  S
C737        O741   1.266       .  A
C737       C2209   1.485       .  S
O742        C745   1.265       .  A
O742       Cd747   2.517   1_655  S
C743        O752   1.267       .  A
C743        O748   1.269       .  A
C743       C2905   1.487       .  S
O744        C750   1.265       .  A
O744       Cd747   2.498       .  S
C745        O753   1.262       .  A
C745       C2177   1.483       .  S
C746        O751   1.270       .  A
C746        O749   1.262       .  A
C746       C2161   1.489       .  S
Cd747       O754   2.476       .  S
Cd747       O753   2.444   1_455  S
Cd747       O752   2.467       .  S
Cd747       O748   2.493       .  S
Cd747       O751   2.536   1_455  S
Cd747       O749   2.439   1_455  S
C750        O754   1.265       .  A
C750       C2225   1.485       .  S
O755        C758   1.262       .  A
O755       Cd760   2.490       .  S
C756        O765   1.266       .  A
C756        O761   1.271       .  A
C756       C2121   1.494       .  S
O757        C763   1.268       .  A
O757       Cd760   2.525       .  S
C758        O766   1.264       .  A
C758       C2145   1.488       .  S
C759        O764   1.268       .  A
C759        O762   1.263       .  A
C759       C2185   1.484       .  S
Cd760       O767   2.458       .  S
Cd760       O766   2.517       .  S
Cd760       O765   2.472       .  S
Cd760       O761   2.524       .  S
Cd760       O764   2.522       .  S
Cd760       O762   2.442       .  S
C763        O767   1.264       .  A
C763       C2129   1.487       .  S
O768        C771   1.269   1_455  A
O768       Cd773   2.508       .  S
C769        O778   1.266       .  A
C769        O774   1.263       .  A
C769       C2217   1.489       .  S
O770        C776   1.267       .  A
O770       Cd773   2.519       .  S
C771        O779   1.266       .  A
C771       C2089   1.490       .  S
C772        O777   1.267   1_655  A
C772        O775   1.264       .  A
C772       C2153   1.487       .  S
Cd773       O780   2.448       .  S
Cd773       O779   2.476   1_455  S
Cd773       O778   2.524       .  S
Cd773       O774   2.481       .  S
Cd773       O777   2.500       .  S
Cd773       O775   2.477   1_455  S
C776        O780   1.263       .  A
C776       C2097   1.485       .  S
O781        C784   1.271       .  A
O781       Cd786   2.517       .  S
C782        O791   1.261       .  A
C782        O787   1.266       .  A
C782       C2073   1.484       .  S
O783        C789   1.269       .  A
O783       Cd786   2.539       .  S
C784        O792   1.266       .  A
C784       C2041   1.490       .  S
C785        O790   1.271       .  A
C785        O788   1.265       .  A
C785       C2049   1.481       .  S
Cd786       O793   2.420       .  S
Cd786       O792   2.451       .  S
Cd786       O791   2.460       .  S
Cd786       O787   2.522       .  S
Cd786       O790   2.502       .  S
Cd786       O788   2.438       .  S
C789        O793   1.263       .  A
C789       C2369   1.485       .  S
O794        C797   1.271       .  A
O794       Cd799   2.503   1_556  S
C795        O804   1.264       .  A
C795        O800   1.262       .  A
C795       C2057   1.485       .  S
O796        C802   1.264       .  A
O796       Cd799   2.454   1_556  S
C797        O805   1.267       .  A
C797       C1985   1.490       .  S
C798        O803   1.267       .  A
C798        O801   1.264       .  A
C798       C2009   1.485       .  S
Cd799       O806   2.499   1_554  S
Cd799       O805   2.469   1_554  S
Cd799       O804   2.499       .  S
Cd799       O800   2.487       .  S
Cd799       O803   2.510       .  S
Cd799       O801   2.455       .  S
C802        O806   1.269       .  A
C802       C2025   1.482       .  S
O807        C810   1.264       .  A
O807       Cd812   2.486       .  S
C808        O817   1.266       .  A
C808        O813   1.271       .  A
C808       C4089   1.487       .  S
O809        C815   1.267       .  A
O809       Cd812   2.504       .  S
C810        O818   1.264       .  A
C810       C2017   1.486       .  S
C811        O816   1.268       .  A
C811        O814   1.263       .  A
C811       C1961   1.484       .  S
Cd812       O819   2.454       .  S
Cd812       O818   2.499       .  S
Cd812       O817   2.455       .  S
Cd812       O813   2.505       .  S
Cd812       O816   2.513       .  S
Cd812       O814   2.439       .  S
C815        O819   1.262       .  A
C815       C1977   1.482       .  S
O820        C823   1.268   1_556  A
O820       Cd825   2.498       .  S
C821        O830   1.265       .  A
C821        O826   1.261       .  A
C821       C1969   1.479       .  S
O822        C828   1.266       .  A
O822       Cd825   2.479   1_554  S
C823        O831   1.266       .  A
C823       C2321   1.484       .  S
C824        O829   1.268       .  A
C824        O827   1.264       .  A
C824       C4017   1.488       .  S
Cd825       O832   2.469   1_556  S
Cd825       O831   2.445   1_556  S
Cd825       O830   2.482       .  S
Cd825       O826   2.464       .  S
Cd825       O829   2.509       .  S
Cd825       O827   2.475       .  S
C828        O832   1.267       .  A
C828       C2065   1.484       .  S
O833        C836   1.273       .  A
O833       Cd838   2.504       .  S
C834        O843   1.264       .  A
C834        O839   1.272       .  A
C834       C1937   1.481       .  S
O835        C841   1.273       .  A
O835       Cd838   2.511       .  S
C836        O844   1.267   1_455  A
C836       C1913   1.482   1_455  S
C837        O842   1.274       .  A
C837        O840   1.266       .  A
C837       C1921   1.489       .  S
Cd838       O845   2.439       .  S
Cd838       O844   2.407   1_455  S
Cd838       O843   2.397       .  S
Cd838       O839   2.529       .  S
Cd838       O842   2.520   1_455  S
Cd838       O840   2.420   1_455  S
C841        O845   1.267       .  A
C841       C1993   1.487       .  S
O846        C849   1.274       .  A
O846       Cd851   2.501       .  S
C847        O856   1.267       .  A
C847        O852   1.275       .  A
C847       C1889   1.487       .  S
O848        C854   1.276       .  A
O848       Cd851   2.526       .  S
C849        O857   1.269       .  A
C849       C1953   1.488       .  S
C850        O855   1.274       .  A
C850        O853   1.268       .  A
C850       C2937   1.486       .  S
Cd851       O858   2.378       .  S
Cd851       O857   2.431       .  S
Cd851       O856   2.397       .  S
Cd851       O852   2.524       .  S
Cd851       O855   2.513       .  S
Cd851       O853   2.420       .  S
C854        O858   1.266       .  A
C854       C1945   1.485       .  S
O859        C862   1.273       .  A
O859       Cd864   2.507       .  S
C860        O869   1.263       .  A
C860        O865   1.272       .  A
C860       C1929   1.486       .  S
O861        C867   1.272       .  A
O861       Cd864   2.528       .  S
C862        O870   1.268       .  A
C862       C2489   1.493       .  S
C863        O868   1.273       .  A
C863        O866   1.268       .  A
C863       C1865   1.490       .  S
Cd864       O871   2.415       .  S
Cd864       O870   2.465       .  S
Cd864       O869   2.420       .  S
Cd864       O865   2.555       .  S
Cd864       O868   2.509       .  S
Cd864       O866   2.446       .  S
C867        O871   1.265       .  A
C867       C1873   1.486       .  S
O872        C875   1.273       .  A
O872       Cd877   2.504       .  S
C873        O882   1.265       .  A
C873        O878   1.273       .  A
C873       C1881   1.479       .  S
O874        C880   1.274       .  A
O874       Cd877   2.526   1_655  S
C875        O883   1.268       .  A
C875       C2841   1.486       .  S
C876        O881   1.274       .  A
C876        O879   1.265       .  A
C876       C1897   1.485       .  S
Cd877       O884   2.412   1_455  S
Cd877       O883   2.427       .  S
Cd877       O882   2.401   1_455  S
Cd877       O878   2.523   1_455  S
Cd877       O881   2.536       .  S
Cd877       O879   2.392       .  S
C880        O884   1.267       .  A
C880       C2521   1.486       .  S
O885        C888   1.274       .  A
O885       Cd890   2.527       .  S
C886        O895   1.266       .  A
C886        O891   1.274       .  A
C886       C1857   1.489       .  S
O887        C893   1.272       .  A
O887       Cd890   2.510       .  S
C888        O896   1.264       .  A
C888       C1849   1.477       .  S
C889        O894   1.272       .  A
C889        O892   1.268       .  A
C889       C4169   1.486       .  S
Cd890       O897   2.419       .  S
Cd890       O896   2.396       .  S
Cd890       O895   2.419       .  S
Cd890       O891   2.526       .  S
Cd890       O894   2.492       .  S
Cd890       O892   2.454       .  S
C893        O897   1.266       .  A
C893       C1825   1.484       .  S
O898        C901   1.273       .  A
O898       Cd903   2.508       .  S
C899        O908   1.264       .  A
C899        O904   1.271       .  A
C899       C1809   1.488       .  S
O900        C906   1.273       .  A
O900       Cd903   2.522       .  S
C901        O909   1.267       .  A
C901       C4153   1.490       .  S
C902        O907   1.271       .  A
C902        O905   1.264       .  A
C902       C2081   1.486       .  S
Cd903       O910   2.412       .  S
Cd903       O909   2.451       .  S
Cd903       O908   2.442       .  S
Cd903       O904   2.534       .  S
Cd903       O907   2.539       .  S
Cd903       O905   2.429       .  S
C906        O910   1.266       .  A
C906       C1841   1.486       .  S
O911        C914   1.274       .  A
O911       Cd916   2.518       .  S
C912        O921   1.264       .  A
C912        O917   1.273       .  A
C912       C1833   1.486       .  S
O913        C919   1.270       .  A
O913       Cd916   2.493       .  S
C914        O922   1.267       .  A
C914       C3065   1.487       .  S
C915        O920   1.271       .  A
C915        O918   1.267       .  A
C915       C1905   1.481       .  S
Cd916       O923   2.426       .  S
Cd916       O922   2.410       .  S
Cd916       O921   2.399       .  S
Cd916       O917   2.537       .  S
Cd916       O920   2.491       .  S
Cd916       O918   2.420       .  S
C919        O923   1.266       .  A
C919       C1801   1.478       .  S
O924        C927   1.269       .  A
O924       Cd929   2.500       .  S
C925        O934   1.264       .  A
C925        O930   1.269       .  A
C925       C2137   1.484       .  S
O926        C932   1.267       .  A
O926       Cd929   2.541       .  S
C927        O935   1.264       .  A
C927       C1793   1.483       .  S
C928        O933   1.270       .  A
C928        O931   1.264       .  A
C928       C3017   1.484       .  S
Cd929       O936   2.448       .  S
Cd929       O935   2.445       .  S
Cd929       O934   2.447       .  S
Cd929       O930   2.514       .  S
Cd929       O933   2.506       .  S
Cd929       O931   2.452       .  S
C932        O936   1.261       .  A
C932       C1817   1.487       .  S
O937        C940   1.272       .  A
O937       Cd942   2.502       .  S
C938        O947   1.267       .  A
C938        O943   1.272       .  A
C938       C3137   1.483       .  S
O939        C945   1.273       .  A
O939       Cd942   2.531       .  S
C940        O948   1.265       .  A
C940       C1777   1.470       .  S
C941        O946   1.273       .  A
C941        O944   1.267       .  A
C941       C1753   1.484       .  S
Cd942       O949   2.399       .  S
Cd942       O948   2.397       .  S
Cd942       O947   2.414       .  S
Cd942       O943   2.511       .  S
Cd942       O946   2.508       .  S
Cd942       O944   2.422       .  S
C945        O949   1.264       .  A
C945       C1769   1.480       .  S
O950        C953   1.271   1_455  A
O950       Cd955   2.485       .  S
C951        O960   1.268       .  A
C951        O956   1.263       .  A
C951       C1761   1.487       .  S
O952        C958   1.270       .  A
O952       Cd955   2.505   1_655  S
C953        O961   1.268       .  A
C953       C1713   1.487       .  S
C954        O959   1.264       .  A
C954        O957   1.270       .  A
C954       C3161   1.490       .  S
Cd955       O962   2.470   1_455  S
Cd955       O961   2.456   1_455  S
Cd955       O960   2.528       .  S
Cd955       O956   2.449       .  S
Cd955       O959   2.444       .  S
Cd955       O957   2.544       .  S
C958        O962   1.264       .  A
C958       C1737   1.483       .  S
O963        C966   1.271       .  A
O963       Cd968   2.515       .  S
C964        O973   1.267       .  A
C964        O969   1.271       .  A
C964       C4281   1.488       .  S
O965        C971   1.274       .  A
O965       Cd968   2.527       .  S
C966        O974   1.262       .  A
C966       C1729   1.477       .  S
C967        O972   1.271       .  A
C967        O970   1.264       .  A
C967       C1681   1.483       .  S
Cd968       O975   2.393       .  S
Cd968       O974   2.434       .  S
Cd968       O973   2.447       .  S
Cd968       O969   2.507       .  S
Cd968       O972   2.521       .  S
Cd968       O970   2.439       .  S
C971        O975   1.266       .  A
C971       C1697   1.484       .  S
O976        C979   1.272       .  A
O976       Cd981   2.507       .  S
C977        O986   1.263       .  A
C977        O982   1.270       .  A
C977       C1705   1.486       .  S
O978        C984   1.270       .  A
O978       Cd981   2.516       .  S
C979        O987   1.268       .  A
C979       C1665   1.490       .  S
C980        O985   1.270       .  A
C980        O983   1.266       .  A
C980       C4137   1.483       .  S
Cd981       O988   2.418       .  S
Cd981       O987   2.450       .  S
Cd981       O986   2.424   1_455  S
Cd981       O982   2.533   1_455  S
Cd981       O985   2.511   1_455  S
Cd981       O983   2.441   1_455  S
C984        O988   1.264       .  A
C984       C1785   1.479       .  S
O989        C992   1.271       .  A
O989       Cd994   2.520       .  S
C990        O999   1.268       .  A
C990        O995   1.272       .  A
C990       C1617   1.489       .  S
O991        C997   1.276       .  A
O991       Cd994   2.533       .  S
C992       O1000   1.264       .  A
C992       C1657   1.481       .  S
C993        O998   1.273       .  A
C993        O996   1.264       .  A
C993       C1673   1.487       .  S
Cd994      O1001   2.366       .  S
Cd994      O1000   2.444       .  S
Cd994       O999   2.459       .  S
Cd994       O995   2.491       .  S
Cd994       O998   2.535       .  S
Cd994       O996   2.418       .  S
C997       O1001   1.265       .  A
C997       C1633   1.484       .  S
O1002      C1005   1.270       .  A
O1002     Cd1007   2.493       .  S
C1003      O1012   1.265       .  A
C1003      O1008   1.262       .  A
C1003      C1609   1.484       .  S
O1004      C1010   1.264       .  A
O1004     Cd1007   2.492       .  S
C1005      O1013   1.267       .  A
C1005      C1745   1.486       .  S
C1006      O1011   1.266       .  A
C1006      O1009   1.263       .  A
C1006      C2033   1.488       .  S
Cd1007     O1014   2.480       .  S
Cd1007     O1013   2.454       .  S
Cd1007     O1012   2.493       .  S
Cd1007     O1008   2.479       .  S
Cd1007     O1011   2.505       .  S
Cd1007     O1009   2.489       .  S
C1010      O1014   1.266       .  A
C1010      C1649   1.483       .  S
O1015      C1018   1.273       .  A
O1015     Cd1020   2.514       .  S
C1016      O1025   1.264       .  A
C1016      O1021   1.272       .  A
C1016      C1641   1.485       .  S
O1017      C1023   1.272       .  A
O1017     Cd1020   2.513       .  S
C1018      O1026   1.269       .  A
C1018      C3697   1.489       .  S
C1019      O1024   1.272       .  A
C1019      O1022   1.267       .  A
C1019      C1569   1.491       .  S
Cd1020     O1027   2.444       .  S
Cd1020     O1026   2.430       .  S
Cd1020     O1025   2.406       .  S
Cd1020     O1021   2.530       .  S
Cd1020     O1024   2.515       .  S
Cd1020     O1022   2.456       .  S
C1023      O1027   1.265       .  A
C1023      C1585   1.480       .  S
O1028      C1031   1.262       .  A
O1028     Cd1033   2.489       .  S
C1029      O1038   1.267       .  A
C1029      O1034   1.270       .  A
C1029      C2001   1.486       .  S
O1030      C1036   1.269       .  A
O1030     Cd1033   2.501       .  S
C1031      O1039   1.263       .  A
C1031      C1593   1.483       .  S
C1032      O1037   1.268       .  A
C1032      O1035   1.264       .  A
C1032      C3641   1.488       .  S
Cd1033     O1040   2.464       .  S
Cd1033     O1039   2.484       .  S
Cd1033     O1038   2.441       .  S
Cd1033     O1034   2.509       .  S
Cd1033     O1037   2.516       .  S
Cd1033     O1035   2.460       .  S
C1036      O1040   1.264       .  A
C1036      C1601   1.483       .  S
O1041      C1044   1.274       .  A
O1041     Cd1046   2.531       .  S
C1042      O1051   1.269       .  A
C1042      O1047   1.274       .  A
C1042      C1577   1.492       .  S
O1043      C1049   1.275       .  A
O1043     Cd1046   2.531       .  S
C1044      O1052   1.267       .  A
C1044      C1553   1.488       .  S
C1045      O1050   1.275       .  A
C1045      O1048   1.267       .  A
C1045      C3745   1.488       .  S
Cd1046     O1053   2.390       .  S
Cd1046     O1052   2.415       .  S
Cd1046     O1051   2.469       .  S
Cd1046     O1047   2.492       .  S
Cd1046     O1050   2.528       .  S
Cd1046     O1048   2.415       .  S
C1049      O1053   1.265       .  A
C1049      C1537   1.483       .  S
O1054      C1057   1.275       .  A
O1054     Cd1059   2.499       .  S
C1055      O1064   1.267       .  A
C1055      O1060   1.277       .  A
C1055      C1545   1.484       .  S
O1056      C1062   1.276       .  A
O1056     Cd1059   2.507       .  S
C1057      O1065   1.268       .  A
C1057      C2105   1.485       .  S
C1058      O1063   1.275       .  A
C1058      O1061   1.268       .  A
C1058      C1625   1.489       .  S
Cd1059     O1066   2.413       .  S
Cd1059     O1065   2.404       .  S
Cd1059     O1064   2.379       .  S
Cd1059     O1060   2.507       .  S
Cd1059     O1063   2.508       .  S
Cd1059     O1061   2.432       .  S
C1062      O1066   1.268       .  A
C1062      C1521   1.485       .  S
O1067      C1070   1.272       .  A
O1067     Cd1072   2.510       .  S
C1068      O1077   1.267       .  A
C1068      O1073   1.271       .  A
C1068      C3961   1.487       .  S
O1069      C1075   1.271       .  A
O1069     Cd1072   2.507       .  S
C1070      O1078   1.264       .  A
C1070      C1529   1.484       .  S
C1071      O1076   1.270       .  A
C1071      O1074   1.267       .  A
C1071      C2201   1.482       .  S
Cd1072     O1079   2.412       .  S
Cd1072     O1078   2.425       .  S
Cd1072     O1077   2.445       .  S
Cd1072     O1073   2.500       .  S
Cd1072     O1076   2.493       .  S
Cd1072     O1074   2.444       .  S
C1075      O1079   1.264       .  A
C1075      C1505   1.482       .  S
O1080      C1083   1.273       .  A
O1080     Cd1085   2.502       .  S
C1081      O1090   1.264       .  A
C1081      O1086   1.273       .  A
C1081      C1513   1.481       .  S
O1082      C1088   1.272       .  A
O1082     Cd1085   2.518       .  S
C1083      O1091   1.267       .  A
C1083      C3897   1.485       .  S
C1084      O1089   1.272       .  A
C1084      O1087   1.268       .  A
C1084      C3969   1.490       .  S
Cd1085     O1092   2.437       .  S
Cd1085     O1091   2.422       .  S
Cd1085     O1090   2.390       .  S
Cd1085     O1086   2.526       .  S
Cd1085     O1089   2.509       .  S
Cd1085     O1087   2.454       .  S
C1088      O1092   1.266       .  A
C1088      C1561   1.489       .  S
O1093      C1096   1.269       .  A
O1093     Cd1098   2.510       .  S
C1094      O1103   1.261       .  A
C1094      O1099   1.266       .  A
C1094      C1489   1.481       .  S
O1095      C1101   1.270       .  A
O1095     Cd1098   2.488       .  S
C1096      O1104   1.266       .  A
C1096      C3433   1.486       .  S
C1097      O1102   1.267       .  A
C1097      O1100   1.263       .  A
C1097      C2473   1.485       .  S
Cd1098     O1105   2.449       .  S
Cd1098     O1104   2.444       .  S
Cd1098     O1103   2.454       .  S
Cd1098     O1099   2.506       .  S
Cd1098     O1102   2.518       .  S
Cd1098     O1100   2.458       .  S
C1101      O1105   1.266       .  A
C1101      C1473   1.479       .  S
O1106      C1109   1.270       .  A
O1106     Cd1111   2.522       .  S
C1107      O1116   1.263       .  A
C1107      O1112   1.264       .  A
C1107      C1457   1.482       .  S
O1108      C1114   1.268       .  A
O1108     Cd1111   2.535   1_565  S
C1109      O1117   1.265       .  A
C1109      C2457   1.487       .  S
C1110      O1115   1.264       .  A
C1110      O1113   1.267       .  A
C1110      C1497   1.483       .  S
Cd1111     O1118   2.436   1_545  S
Cd1111     O1117   2.438       .  S
Cd1111     O1116   2.464   1_545  S
Cd1111     O1112   2.490   1_545  S
Cd1111     O1115   2.469       .  S
Cd1111     O1113   2.486       .  S
C1114      O1118   1.263       .  A
C1114      C2649   1.486       .  S
O1119      C1122   1.271       .  A
O1119     Cd1124   2.500       .  S
C1120      O1129   1.262       .  A
C1120      O1125   1.269       .  A
C1120      C1441   1.487       .  S
O1121      C1127   1.270       .  A
O1121     Cd1124   2.504       .  S
C1122      O1130   1.267       .  A
C1122      C2633   1.490       .  S
C1123      O1128   1.269       .  A
C1123      O1126   1.264       .  A
C1123      C1425   1.487       .  S
Cd1124     O1131   2.431       .  S
Cd1124     O1130   2.469       .  S
Cd1124     O1129   2.445       .  S
Cd1124     O1125   2.534       .  S
Cd1124     O1128   2.528       .  S
Cd1124     O1126   2.442       .  S
C1127      O1131   1.265       .  A
C1127      C1465   1.480       .  S
O1132      C1135   1.270   1_545  A
O1132     Cd1137   2.533       .  S
C1133      O1142   1.265       .  A
C1133      O1138   1.262       .  A
C1133      C1481   1.483       .  S
O1134      C1140   1.269       .  A
O1134     Cd1137   2.544       .  S
C1135      O1143   1.266       .  A
C1135      C1417   1.490       .  S
C1136      O1141   1.265       .  A
C1136      O1139   1.268   1_565  A
C1136      C1449   1.485       .  S
Cd1137     O1144   2.453       .  S
Cd1137     O1143   2.438   1_545  S
Cd1137     O1142   2.495       .  S
Cd1137     O1138   2.476       .  S
Cd1137     O1141   2.479   1_545  S
Cd1137     O1139   2.501       .  S
C1140      O1144   1.262       .  A
C1140      C3457   1.489       .  S
O1145      C1148   1.260       .  A
O1145     Cd1150   2.481       .  S
C1146      O1155   1.265       .  A
C1146      O1151   1.271   1_565  A
C1146      C1369   1.488       .  S
O1147      C1153   1.265       .  A
O1147     Cd1150   2.430   1_565  S
C1148      O1156   1.265       .  A
C1148      C1393   1.486       .  S
C1149      O1154   1.268       .  A
C1149      O1152   1.263       .  A
C1149      C1721   1.486       .  S
Cd1150     O1157   2.497       .  S
Cd1150     O1156   2.514       .  S
Cd1150     O1155   2.432   1_545  S
Cd1150     O1151   2.534       .  S
Cd1150     O1154   2.530       .  S
Cd1150     O1152   2.451       .  S
C1153      O1157   1.272   1_565  A
C1153      C1385   1.479       .  S
O1158      C1161   1.270       .  A
O1158     Cd1163   2.499       .  S
C1159      O1168   1.265       .  A
C1159      O1164   1.261       .  A
C1159      C1353   1.484       .  S
O1160      C1166   1.269       .  A
O1160     Cd1163   2.505       .  S
C1161      O1169   1.267       .  A
C1161      C1689   1.486       .  S
C1162      O1167   1.268       .  A
C1162      O1165   1.263       .  A
C1162      C2569   1.487       .  S
Cd1163     O1170   2.457       .  S
Cd1163     O1169   2.444       .  S
Cd1163     O1168   2.516       .  S
Cd1163     O1164   2.461       .  S
Cd1163     O1167   2.518       .  S
Cd1163     O1165   2.470       .  S
C1166      O1170   1.264       .  A
C1166      C1401   1.484       .  S
O1171      C1174   1.271       .  A
O1171     Cd1176   2.514       .  S
C1172      O1181   1.262       .  A
C1172      O1177   1.267       .  A
C1172      C1377   1.478       .  S
O1173      C1179   1.272       .  A
O1173     Cd1176   2.522       .  S
C1174      O1182   1.267       .  A
C1174      C3609   1.490       .  S
C1175      O1180   1.270       .  A
C1175      O1178   1.264       .  A
C1175      C1313   1.485       .  S
Cd1176     O1183   2.412       .  S
Cd1176     O1182   2.447       .  S
Cd1176     O1181   2.466       .  S
Cd1176     O1177   2.495       .  S
Cd1176     O1180   2.520       .  S
Cd1176     O1178   2.435       .  S
C1179      O1183   1.265       .  A
C1179      C1329   1.481       .  S
O1184      C1187   1.266   1_545  A
O1184     Cd1189   2.508       .  S
C1185      O1194   1.266       .  A
C1185      O1190   1.270       .  A
C1185      C2537   1.490       .  S
O1186      C1192   1.266       .  A
O1186     Cd1189   2.488       .  S
C1187      O1195   1.263       .  A
C1187      C1337   1.485       .  S
C1188      O1193   1.269       .  A
C1188      O1191   1.265       .  A
C1188      C3561   1.487       .  S
Cd1189     O1196   2.489       .  S
Cd1189     O1195   2.458   1_545  S
Cd1189     O1194   2.434       .  S
Cd1189     O1190   2.535       .  S
Cd1189     O1193   2.510   1_545  S
Cd1189     O1191   2.457   1_545  S
C1192      O1196   1.264       .  A
C1192      C1345   1.485       .  S
O1197      C1200   1.271       .  A
O1197     Cd1202   2.530       .  S
C1198      O1207   1.263       .  A
C1198      O1203   1.263       .  A
C1198      C1297   1.487       .  S
O1199      C1205   1.269       .  A
O1199     Cd1202   2.549       .  S
C1200      O1208   1.266       .  A
C1200      C1321   1.490       .  S
C1201      O1206   1.264       .  A
C1201      O1204   1.268       .  A
C1201      C1281   1.484       .  S
Cd1202     O1209   2.442       .  S
Cd1202     O1208   2.443       .  S
Cd1202     O1207   2.488       .  S
Cd1202     O1203   2.504       .  S
Cd1202     O1206   2.482       .  S
Cd1202     O1204   2.488       .  S
C1205      O1209   1.263       .  A
C1205      C3833   1.491       .  S
O1210      C1213   1.262       .  A
O1210     Cd1215   2.474       .  S
C1211      O1220   1.267       .  A
C1211      O1216   1.270       .  A
C1211      C3801   1.490       .  S
O1212      C1218   1.267       .  A
O1212     Cd1215   2.511       .  S
C1213      O1221   1.265       .  A
C1213      C1265   1.487       .  S
C1214      O1219   1.267       .  A
C1214      O1217   1.264       .  A
C1214      C1305   1.486       .  S
Cd1215     O1222   2.460       .  S
Cd1215     O1221   2.519       .  S
Cd1215     O1220   2.477       .  S
Cd1215     O1216   2.499       .  S
Cd1215     O1219   2.504       .  S
Cd1215     O1217   2.476       .  S
C1218      O1222   1.264       .  A
C1218      C1409   1.487       .  S
O1223      C1226   1.270       .  A
O1223     Cd1228   2.511       .  S
C1224      O1233   1.263       .  A
C1224      O1229   1.268       .  A
C1224      C1289   1.481       .  S
O1225      C1231   1.273       .  A
O1225     Cd1228   2.535       .  S
C1226      O1234   1.267       .  A
C1226      C2169   1.487       .  S
C1227      O1232   1.271       .  A
C1227      O1230   1.264       .  A
C1227      C1361   1.490       .  S
Cd1228     O1235   2.423       .  S
Cd1228     O1234   2.441       .  S
Cd1228     O1233   2.440       .  S
Cd1228     O1229   2.515       .  S
Cd1228     O1232   2.535       .  S
Cd1228     O1230   2.434       .  S
C1231      O1235   1.266       .  A
C1231      C1249   1.488       .  S
O1236      C1239   1.272       .  A
O1236     Cd1241   2.529       .  S
C1237      O1246   1.259       .  A
C1237      O1242   1.268       .  A
C1237      C1257   1.486       .  S
O1238      C1244   1.271       .  A
O1238     Cd1241   2.513       .  S
C1239      O1247   1.267       .  A
C1239      C1433   1.488       .  S
C1240      O1245   1.262       .  A
C1240      O1243   1.269       .  A
C1240      C1273   1.482       .  S
Cd1241     O1248   2.455       .  S
Cd1241     O1247   2.431       .  S
Cd1241     O1246   2.431       .  S
Cd1241     O1242   2.559       .  S
Cd1241     O1245   2.443       .  S
Cd1241     O1243   2.526       .  S
C1244      O1248   1.268       .  A
C1244      C2113   1.490       .  S
C1249      C1250   1.406       .  A
C1249      C1254   1.413       .  A
C1250      C1251   1.393       .  A
C1250      H1259   1.083       .  S
C1251      C1252   1.398       .  A
C1251      H1260   1.084       .  S
C1252      C1258   1.402       .  A
C1252      C1253   1.414       .  A
C1253      C1255   1.408       .  A
C1253      C1254   1.416       .  A
C1254      H1261   1.084       .  S
C1255      C1256   1.408       .  A
C1255      H1262   1.083       .  S
C1256      C1257   1.406       .  A
C1256      H1263   1.083       .  S
C1257      C1258   1.405       .  A
C1258      H1264   1.085       .  S
C1265      C1266   1.407       .  A
C1265      C1270   1.410       .  A
C1266      C1267   1.397       .  A
C1266      H1275   1.083       .  S
C1267      C1268   1.401       .  A
C1267      H1276   1.084       .  S
C1268      C1274   1.405       .  A
C1268      C1269   1.413       .  A
C1269      C1271   1.406       .  A
C1269      C1270   1.411       .  A
C1270      H1277   1.084       .  S
C1271      C1272   1.403       .  A
C1271      H1278   1.083       .  S
C1272      C1273   1.404       .  A
C1272      H1279   1.083       .  S
C1273      C1274   1.407       .  A
C1274      H1280   1.085       .  S
C1281      C1282   1.404       .  A
C1281      C1286   1.411       .  A
C1282      C1283   1.397       .  A
C1282      H1291   1.083       .  S
C1283      C1284   1.401       .  A
C1283      H1292   1.084       .  S
C1284      C1290   1.404       .  A
C1284      C1285   1.413       .  A
C1285      C1287   1.406       .  A
C1285      C1286   1.410       .  A
C1286      H1293   1.084       .  S
C1287      C1288   1.403       .  A
C1287      H1294   1.084       .  S
C1288      C1289   1.405       .  A
C1288      H1295   1.083       .  S
C1289      C1290   1.405       .  A
C1290      H1296   1.084       .  S
C1297      C1298   1.407       .  A
C1297      C1302   1.410       .  A
C1298      C1299   1.399       .  A
C1298      H1307   1.083       .  S
C1299      C1300   1.402       .  A
C1299      H1308   1.084       .  S
C1300      C1306   1.407       .  A
C1300      C1301   1.413       .  A
C1301      C1303   1.404       .  A
C1301      C1302   1.410       .  A
C1302      H1309   1.084       .  S
C1303      C1304   1.401       .  A
C1303      H1310   1.083       .  S
C1304      C1305   1.406       .  A
C1304      H1311   1.083       .  S
C1305      C1306   1.408       .  A
C1306      H1312   1.084       .  S
C1313      C1314   1.406       .  A
C1313      C1318   1.406       .  A
C1314      C1315   1.405       .  A
C1314      H1323   1.083       .  S
C1315      C1316   1.407       .  A
C1315      H1324   1.083       .  S
C1316      C1322   1.414       .  A
C1316      C1317   1.414       .  A
C1317      C1319   1.399       .  A
C1317      C1318   1.403       .  A
C1318      H1325   1.084       .  S
C1319      C1320   1.395       .  A
C1319      H1326   1.084       .  S
C1320      C1321   1.407       .  A
C1320      H1327   1.083       .  S
C1321      C1322   1.412       .  A
C1322      H1328   1.084       .  S
C1329      C1330   1.406       .  A
C1329      C1334   1.408       .  A
C1330      C1331   1.393       .  A
C1330      H1339   1.083       .  S
C1331      C1332   1.399       .  A
C1331      H1340   1.084       .  S
C1332      C1338   1.403       .  A
C1332      C1333   1.415       .  A
C1333      C1335   1.405       .  A
C1333      C1334   1.412       .  A
C1334      H1341   1.084       .  S
C1335      C1336   1.403       .  A
C1335      H1342   1.083       .  S
C1336      C1337   1.407       .  A
C1336      H1343   1.083       .  S
C1337      C1338   1.406       .  A
C1338      H1344   1.084       .  S
C1345      C1346   1.406       .  A
C1345      C1350   1.410       .  A
C1346      C1347   1.398       .  A
C1346      H1355   1.083       .  S
C1347      C1348   1.402       .  A
C1347      H1356   1.084       .  S
C1348      C1354   1.405       .  A
C1348      C1349   1.413       .  A
C1349      C1351   1.405       .  A
C1349      C1350   1.409       .  A
C1350      H1357   1.084       .  S
C1351      C1352   1.402       .  A
C1351      H1358   1.083       .  S
C1352      C1353   1.406       .  A
C1352      H1359   1.083       .  S
C1353      C1354   1.408       .  A
C1354      H1360   1.084       .  S
C1361      C1362   1.407       .  A
C1361      C1366   1.407       .  A
C1362      C1363   1.407       .  A
C1362      H1371   1.083       .  S
C1363      C1364   1.407       .  A
C1363      H1372   1.083       .  S
C1364      C1370   1.415       .  A
C1364      C1365   1.413       .  A
C1365      C1367   1.399       .  A
C1365      C1366   1.403       .  A
C1366      H1373   1.084       .  S
C1367      C1368   1.393       .  A
C1367      H1374   1.084       .  S
C1368      C1369   1.406       .  A
C1368      H1375   1.083       .  S
C1369      C1370   1.412       .  A
C1370      H1376   1.084       .  S
C1377      C1378   1.404       .  A
C1377      C1382   1.407       .  A
C1378      C1379   1.398       .  A
C1378      H1387   1.083       .  S
C1379      C1380   1.403       .  A
C1379      H1388   1.084       .  S
C1380      C1386   1.405       .  A
C1380      C1381   1.414       .  A
C1381      C1383   1.404       .  A
C1381      C1382   1.407       .  A
C1382      H1389   1.084       .  S
C1383      C1384   1.401       .  A
C1383      H1390   1.083       .  S
C1384      C1385   1.404       .  A
C1384      H1391   1.083       .  S
C1385      C1386   1.407       .  A
C1386      H1392   1.085       .  S
C1393      C1394   1.405       .  A
C1393      C1398   1.410       .  A
C1394      C1395   1.400       .  A
C1394      H1403   1.083       .  S
C1395      C1396   1.403       .  A
C1395      H1404   1.084       .  S
C1396      C1402   1.407       .  A
C1396      C1397   1.413       .  A
C1397      C1399   1.404       .  A
C1397      C1398   1.408       .  A
C1398      H1405   1.084       .  S
C1399      C1400   1.401       .  A
C1399      H1406   1.084       .  S
C1400      C1401   1.405       .  A
C1400      H1407   1.083       .  S
C1401      C1402   1.408       .  A
C1402      H1408   1.084       .  S
C1409      C1410   1.407       .  A
C1409      C1414   1.406       .  A
C1410      C1411   1.405       .  A
C1410      H1419   1.083       .  S
C1411      C1412   1.406       .  A
C1411      H1420   1.083       .  S
C1412      C1418   1.415       .  A
C1412      C1413   1.414       .  A
C1413      C1415   1.399       .  A
C1413      C1414   1.404       .  A
C1414      H1421   1.084       .  S
C1415      C1416   1.394       .  A
C1415      H1422   1.084       .  S
C1416      C1417   1.407       .  A
C1416      H1423   1.083       .  S
C1417      C1418   1.412       .  A
C1418      H1424   1.084       .  S
C1425      C1426   1.407       .  A
C1425      C1430   1.405       .  A
C1426      C1427   1.407       .  A
C1426      H1435   1.083       .  S
C1427      C1428   1.407       .  A
C1427      H1436   1.083       .  S
C1428      C1434   1.415       .  A
C1428      C1429   1.414       .  A
C1429      C1431   1.399       .  A
C1429      C1430   1.403       .  A
C1430      H1437   1.084       .  S
C1431      C1432   1.393       .  A
C1431      H1438   1.084       .  S
C1432      C1433   1.407       .  A
C1432      H1439   1.083       .  S
C1433      C1434   1.412       .  A
C1434      H1440   1.084       .  S
C1441      C1442   1.407       .  A
C1441      C1446   1.409       .  A
C1442      C1443   1.397       .  A
C1442      H1451   1.083       .  S
C1443      C1444   1.401       .  A
C1443      H1452   1.084       .  S
C1444      C1450   1.408       .  A
C1444      C1445   1.415       .  A
C1445      C1447   1.404       .  A
C1445      C1446   1.412       .  A
C1446      H1453   1.084       .  S
C1447      C1448   1.402       .  A
C1447      H1454   1.083       .  S
C1448      C1449   1.406       .  A
C1448      H1455   1.083       .  S
C1449      C1450   1.406       .  A
C1450      H1456   1.084       .  S
C1457      C1458   1.406       .  A
C1457      C1462   1.406       .  A
C1458      C1459   1.401       .  A
C1458      H1467   1.083       .  S
C1459      C1460   1.403       .  A
C1459      H1468   1.083       .  S
C1460      C1466   1.409       .  A
C1460      C1461   1.414       .  A
C1461      C1463   1.401       .  A
C1461      C1462   1.404       .  A
C1462      H1469   1.084       .  S
C1463      C1464   1.395       .  A
C1463      H1470   1.084       .  S
C1464      C1465   1.405       .  A
C1464      H1471   1.083       .  S
C1465      C1466   1.407       .  A
C1466      H1472   1.084       .  S
C1473      C1474   1.404       .  A
C1473      C1478   1.407       .  A
C1474      C1475   1.400       .  A
C1474      H1483   1.083       .  S
C1475      C1476   1.404       .  A
C1475      H1484   1.084       .  S
C1476      C1482   1.406       .  A
C1476      C1477   1.413       .  A
C1477      C1479   1.402       .  A
C1477      C1478   1.405       .  A
C1478      H1485   1.084       .  S
C1479      C1480   1.399       .  A
C1479      H1486   1.084       .  S
C1480      C1481   1.406       .  A
C1480      H1487   1.083       .  S
C1481      C1482   1.409       .  A
C1482      H1488   1.084       .  S
C1489      C1490   1.405       .  A
C1489      C1494   1.408       .  A
C1490      C1491   1.400       .  A
C1490      H1499   1.083       .  S
C1491      C1492   1.404       .  A
C1491      H1500   1.083       .  S
C1492      C1498   1.406       .  A
C1492      C1493   1.413       .  A
C1493      C1495   1.403       .  A
C1493      C1494   1.405       .  A
C1494      H1501   1.084       .  S
C1495      C1496   1.399       .  A
C1495      H1502   1.084       .  S
C1496      C1497   1.406       .  A
C1496      H1503   1.083       .  S
C1497      C1498   1.408       .  A
C1498      H1504   1.084       .  S
C1505      C1506   1.406       .  A
C1505      C1510   1.404       .  A
C1506      C1507   1.405       .  A
C1506      H1515   1.083       .  S
C1507      C1508   1.406       .  A
C1507      H1516   1.083       .  S
C1508      C1514   1.412       .  A
C1508      C1509   1.414       .  A
C1509      C1511   1.397       .  A
C1509      C1510   1.399       .  A
C1510      H1517   1.084       .  S
C1511      C1512   1.390       .  A
C1511      H1518   1.084       .  S
C1512      C1513   1.407       .  A
C1512      H1519   1.083       .  S
C1513      C1514   1.409       .  A
C1514      H1520   1.084       .  S
C1521      C1522   1.407       .  A
C1521      C1526   1.409       .  A
C1522      C1523   1.395       .  A
C1522      H1531   1.083       .  S
C1523      C1524   1.400       .  A
C1523      H1532   1.084       .  S
C1524      C1530   1.403       .  A
C1524      C1525   1.414       .  A
C1525      C1527   1.405       .  A
C1525      C1526   1.412       .  A
C1526      H1533   1.084       .  S
C1527      C1528   1.403       .  A
C1527      H1534   1.083       .  S
C1528      C1529   1.405       .  A
C1528      H1535   1.083       .  S
C1529      C1530   1.407       .  A
C1530      H1536   1.084       .  S
C1537      C1538   1.406       .  A
C1537      C1542   1.411       .  A
C1538      C1539   1.390       .  A
C1538      H1547   1.083       .  S
C1539      C1540   1.397       .  A
C1539      H1548   1.084       .  S
C1540      C1546   1.398       .  A
C1540      C1541   1.413       .  A
C1541      C1543   1.408       .  A
C1541      C1542   1.414       .  A
C1542      H1549   1.084       .  S
C1543      C1544   1.407       .  A
C1543      H1550   1.083       .  S
C1544      C1545   1.406       .  A
C1544      H1551   1.083       .  S
C1545      C1546   1.405       .  A
C1546      H1552   1.084       .  S
C1553      C1554   1.407       .  A
C1553      C1558   1.412       .  A
C1554      C1555   1.393       .  A
C1554      H1563   1.083       .  S
C1555      C1556   1.399       .  A
C1555      H1564   1.084       .  S
C1556      C1562   1.404       .  A
C1556      C1557   1.414       .  A
C1557      C1559   1.407       .  A
C1557      C1558   1.416       .  A
C1558      H1565   1.084       .  S
C1559      C1560   1.406       .  A
C1559      H1566   1.083       .  S
C1560      C1561   1.407       .  A
C1560      H1567   1.083       .  S
C1561      C1562   1.407       .  A
C1562      H1568   1.084       .  S
C1569      C1570   1.408       .  A
C1569      C1574   1.409       .  A
C1570      C1571   1.400       .  A
C1570      H1579   1.083       .  S
C1571      C1572   1.403       .  A
C1571      H1580   1.084       .  S
C1572      C1578   1.411       .  A
C1572      C1573   1.414       .  A
C1573      C1575   1.404       .  A
C1573      C1574   1.412       .  A
C1574      H1581   1.084       .  S
C1575      C1576   1.402       .  A
C1575      H1582   1.083       .  S
C1576      C1577   1.406       .  A
C1576      H1583   1.083       .  S
C1577      C1578   1.411       .  A
C1578      H1584   1.084       .  S
C1585      C1586   1.404       .  A
C1585      C1590   1.407       .  A
C1586      C1587   1.402       .  A
C1586      H1595   1.083       .  S
C1587      C1588   1.405       .  A
C1587      H1596   1.083       .  S
C1588      C1594   1.408       .  A
C1588      C1589   1.414       .  A
C1589      C1591   1.402       .  A
C1589      C1590   1.406       .  A
C1590      H1597   1.084       .  S
C1591      C1592   1.398       .  A
C1591      H1598   1.084       .  S
C1592      C1593   1.406       .  A
C1592      H1599   1.083       .  S
C1593      C1594   1.408       .  A
C1594      H1600   1.084       .  S
C1601      C1602   1.405       .  A
C1601      C1606   1.408       .  A
C1602      C1603   1.400       .  A
C1602      H1611   1.083       .  S
C1603      C1604   1.404       .  A
C1603      H1612   1.084       .  S
C1604      C1610   1.407       .  A
C1604      C1605   1.413       .  A
C1605      C1607   1.403       .  A
C1605      C1606   1.407       .  A
C1606      H1613   1.084       .  S
C1607      C1608   1.399       .  A
C1607      H1614   1.084       .  S
C1608      C1609   1.406       .  A
C1608      H1615   1.083       .  S
C1609      C1610   1.409       .  A
C1610      H1616   1.084       .  S
C1617      C1618   1.406       .  A
C1617      C1622   1.409       .  A
C1618      C1619   1.403       .  A
C1618      H1627   1.083       .  S
C1619      C1620   1.404       .  A
C1619      H1628   1.083       .  S
C1620      C1626   1.412       .  A
C1620      C1621   1.414       .  A
C1621      C1623   1.401       .  A
C1621      C1622   1.407       .  A
C1622      H1629   1.084       .  S
C1623      C1624   1.398       .  A
C1623      H1630   1.084       .  S
C1624      C1625   1.408       .  A
C1624      H1631   1.083       .  S
C1625      C1626   1.409       .  A
C1626      H1632   1.084       .  S
C1633      C1634   1.407       .  A
C1633      C1638   1.411       .  A
C1634      C1635   1.388       .  A
C1634      H1643   1.083       .  S
C1635      C1636   1.396       .  A
C1635      H1644   1.084       .  S
C1636      C1642   1.398       .  A
C1636      C1637   1.414       .  A
C1637      C1639   1.408       .  A
C1637      C1638   1.416       .  A
C1638      H1645   1.084       .  S
C1639      C1640   1.408       .  A
C1639      H1646   1.083       .  S
C1640      C1641   1.406       .  A
C1640      H1647   1.083       .  S
C1641      C1642   1.404       .  A
C1642      H1648   1.085       .  S
C1649      C1650   1.405       .  A
C1649      C1654   1.410       .  A
C1650      C1651   1.397       .  A
C1650      H1659   1.083       .  S
C1651      C1652   1.401       .  A
C1651      H1660   1.084       .  S
C1652      C1658   1.405       .  A
C1652      C1653   1.414       .  A
C1653      C1655   1.406       .  A
C1653      C1654   1.411       .  A
C1654      H1661   1.084       .  S
C1655      C1656   1.404       .  A
C1655      H1662   1.083       .  S
C1656      C1657   1.404       .  A
C1656      H1663   1.083       .  S
C1657      C1658   1.406       .  A
C1658      H1664   1.085       .  S
C1665      C1666   1.407       .  A
C1665      C1670   1.407       .  A
C1666      C1667   1.405       .  A
C1666      H1675   1.083       .  S
C1667      C1668   1.406       .  A
C1667      H1676   1.083       .  S
C1668      C1674   1.415       .  A
C1668      C1669   1.414       .  A
C1669      C1671   1.400       .  A
C1669      C1670   1.405       .  A
C1670      H1677   1.084       .  S
C1671      C1672   1.395       .  A
C1671      H1678   1.084       .  S
C1672      C1673   1.407       .  A
C1672      H1679   1.083       .  S
C1673      C1674   1.410       .  A
C1674      H1680   1.084       .  S
C1681      C1682   1.405       .  A
C1681      C1686   1.406       .  A
C1682      C1683   1.404       .  A
C1682      H1691   1.083       .  S
C1683      C1684   1.406       .  A
C1683      H1692   1.083       .  S
C1684      C1690   1.411       .  A
C1684      C1685   1.414       .  A
C1685      C1687   1.400       .  A
C1685      C1686   1.404       .  A
C1686      H1693   1.084       .  S
C1687      C1688   1.395       .  A
C1687      H1694   1.084       .  S
C1688      C1689   1.406       .  A
C1688      H1695   1.083       .  S
C1689      C1690   1.410       .  A
C1690      H1696   1.084       .  S
C1697      C1698   1.407       .  A
C1697      C1702   1.411       .  A
C1698      C1699   1.390       .  A
C1698      H1707   1.083       .  S
C1699      C1700   1.397       .  A
C1699      H1708   1.084       .  S
C1700      C1706   1.400       .  A
C1700      C1701   1.414       .  A
C1701      C1703   1.407       .  A
C1701      C1702   1.415       .  A
C1702      H1709   1.084       .  S
C1703      C1704   1.407       .  A
C1703      H1710   1.083       .  S
C1704      C1705   1.406       .  A
C1704      H1711   1.083       .  S
C1705      C1706   1.405       .  A
C1706      H1712   1.084       .  S
C1713      C1714   1.406       .  A
C1713      C1718   1.407       .  A
C1714      C1715   1.402       .  A
C1714      H1723   1.083       .  S
C1715      C1716   1.404       .  A
C1715      H1724   1.083       .  S
C1716      C1722   1.412       .  A
C1716      C1717   1.414       .  A
C1717      C1719   1.401       .  A
C1717      C1718   1.406       .  A
C1718      H1725   1.084       .  S
C1719      C1720   1.397       .  A
C1719      H1726   1.084       .  S
C1720      C1721   1.406       .  A
C1720      H1727   1.083       .  S
C1721      C1722   1.409       .  A
C1722      H1728   1.084       .  S
C1729      C1730   1.403       .  A
C1729      C1734   1.407       .  A
C1730      C1731   1.401       .  A
C1730      H1739   1.083       .  S
C1731      C1732   1.405       .  A
C1731      H1740   1.083       .  S
C1732      C1738   1.409       .  A
C1732      C1733   1.414       .  A
C1733      C1735   1.403       .  A
C1733      C1734   1.406       .  A
C1734      H1741   1.085       .  S
C1735      C1736   1.400       .  A
C1735      H1742   1.084       .  S
C1736      C1737   1.404       .  A
C1736      H1743   1.083       .  S
C1737      C1738   1.409       .  A
C1738      H1744   1.084       .  S
C1745      C1746   1.406       .  A
C1745      C1750   1.406       .  A
C1746      C1747   1.403       .  A
C1746      H1755   1.083       .  S
C1747      C1748   1.405       .  A
C1747      H1756   1.083       .  S
C1748      C1754   1.411       .  A
C1748      C1749   1.414       .  A
C1749      C1751   1.400       .  A
C1749      C1750   1.404       .  A
C1750      H1757   1.084       .  S
C1751      C1752   1.395       .  A
C1751      H1758   1.084       .  S
C1752      C1753   1.406       .  A
C1752      H1759   1.083       .  S
C1753      C1754   1.409       .  A
C1754      H1760   1.084       .  S
C1761      C1762   1.407       .  A
C1761      C1766   1.406       .  A
C1762      C1763   1.406       .  A
C1762      H1771   1.083       .  S
C1763      C1764   1.406       .  A
C1763      H1772   1.083       .  S
C1764      C1770   1.415       .  A
C1764      C1765   1.415       .  A
C1765      C1767   1.399       .  A
C1765      C1766   1.402       .  A
C1766      H1773   1.084       .  S
C1767      C1768   1.392       .  A
C1767      H1774   1.084       .  S
C1768      C1769   1.404       .  A
C1768      H1775   1.084       .  S
C1769      C1770   1.409       .  A
C1770      H1776   1.084       .  S
C1777      C1778   1.402       .  A
C1777      C1782   1.407       .  A
C1778      C1779   1.392       .  A
C1778      H1787   1.084       .  S
C1779      C1780   1.400       .  A
C1779      H1788   1.084       .  S
C1780      C1786   1.399       .  A
C1780      C1781   1.415       .  A
C1781      C1783   1.406       .  A
C1781      C1782   1.410       .  A
C1782      H1789   1.084       .  S
C1783      C1784   1.404       .  A
C1783      H1790   1.083       .  S
C1784      C1785   1.405       .  A
C1784      H1791   1.083       .  S
C1785      C1786   1.404       .  A
C1786      H1792   1.085       .  S
C1793      C1794   1.407       .  A
C1793      C1798   1.409       .  A
C1794      C1795   1.395       .  A
C1794      H1803   1.083       .  S
C1795      C1796   1.400       .  A
C1795      H1804   1.084       .  S
C1796      C1802   1.402       .  A
C1796      C1797   1.414       .  A
C1797      C1799   1.405       .  A
C1797      C1798   1.409       .  A
C1798      H1805   1.084       .  S
C1799      C1800   1.402       .  A
C1799      H1806   1.083       .  S
C1800      C1801   1.404       .  A
C1800      H1807   1.083       .  S
C1801      C1802   1.405       .  A
C1802      H1808   1.085       .  S
C1809      C1810   1.406       .  A
C1809      C1814   1.407       .  A
C1810      C1811   1.406       .  A
C1810      H1819   1.083       .  S
C1811      C1812   1.407       .  A
C1811      H1820   1.083       .  S
C1812      C1818   1.414       .  A
C1812      C1813   1.413       .  A
C1813      C1815   1.400       .  A
C1813      C1814   1.404       .  A
C1814      H1821   1.084       .  S
C1815      C1816   1.395       .  A
C1815      H1822   1.084       .  S
C1816      C1817   1.407       .  A
C1816      H1823   1.083       .  S
C1817      C1818   1.411       .  A
C1818      H1824   1.084       .  S
C1825      C1826   1.406       .  A
C1825      C1830   1.405       .  A
C1826      C1827   1.406       .  A
C1826      H1835   1.083       .  S
C1827      C1828   1.407       .  A
C1827      H1836   1.083       .  S
C1828      C1834   1.414       .  A
C1828      C1829   1.414       .  A
C1829      C1831   1.397       .  A
C1829      C1830   1.401       .  A
C1830      H1837   1.085       .  S
C1831      C1832   1.391       .  A
C1831      H1838   1.084       .  S
C1832      C1833   1.408       .  A
C1832      H1839   1.083       .  S
C1833      C1834   1.411       .  A
C1834      H1840   1.084       .  S
C1841      C1842   1.407       .  A
C1841      C1846   1.405       .  A
C1842      C1843   1.407       .  A
C1842      H1851   1.083       .  S
C1843      C1844   1.407       .  A
C1843      H1852   1.083       .  S
C1844      C1850   1.414       .  A
C1844      C1845   1.414       .  A
C1845      C1847   1.399       .  A
C1845      C1846   1.400       .  A
C1846      H1853   1.084       .  S
C1847      C1848   1.391       .  A
C1847      H1854   1.084       .  S
C1848      C1849   1.404       .  A
C1848      H1855   1.084       .  S
C1849      C1850   1.409       .  A
C1850      H1856   1.084       .  S
C1857      C1858   1.407       .  A
C1857      C1862   1.411       .  A
C1858      C1859   1.394       .  A
C1858      H1867   1.083       .  S
C1859      C1860   1.399       .  A
C1859      H1868   1.084       .  S
C1860      C1866   1.405       .  A
C1860      C1861   1.414       .  A
C1861      C1863   1.406       .  A
C1861      C1862   1.415       .  A
C1862      H1869   1.084       .  S
C1863      C1864   1.406       .  A
C1863      H1870   1.083       .  S
C1864      C1865   1.407       .  A
C1864      H1871   1.083       .  S
C1865      C1866   1.407       .  A
C1866      H1872   1.084       .  S
C1873      C1874   1.407       .  A
C1873      C1878   1.405       .  A
C1874      C1875   1.407       .  A
C1874      H1883   1.083       .  S
C1875      C1876   1.408       .  A
C1875      H1884   1.083       .  S
C1876      C1882   1.415       .  A
C1876      C1877   1.414       .  A
C1877      C1879   1.399       .  A
C1877      C1878   1.400       .  A
C1878      H1885   1.084       .  S
C1879      C1880   1.391       .  A
C1879      H1886   1.084       .  S
C1880      C1881   1.404       .  A
C1880      H1887   1.084       .  S
C1881      C1882   1.410       .  A
C1882      H1888   1.084       .  S
C1889      C1890   1.407       .  A
C1889      C1894   1.405       .  A
C1890      C1891   1.409       .  A
C1890      H1899   1.083       .  S
C1891      C1892   1.408       .  A
C1891      H1900   1.083       .  S
C1892      C1898   1.416       .  A
C1892      C1893   1.413       .  A
C1893      C1895   1.397       .  A
C1893      C1894   1.399       .  A
C1894      H1901   1.084       .  S
C1895      C1896   1.389       .  A
C1895      H1902   1.084       .  S
C1896      C1897   1.406       .  A
C1896      H1903   1.083       .  S
C1897      C1898   1.412       .  A
C1898      H1904   1.084       .  S
C1905      C1906   1.406       .  A
C1905      C1910   1.404       .  A
C1906      C1907   1.404       .  A
C1906      H1915   1.083       .  S
C1907      C1908   1.405       .  A
C1907      H1916   1.083       .  S
C1908      C1914   1.411       .  A
C1908      C1909   1.414       .  A
C1909      C1911   1.398       .  A
C1909      C1910   1.400       .  A
C1910      H1917   1.084       .  S
C1911      C1912   1.392       .  A
C1911      H1918   1.084       .  S
C1912      C1913   1.406       .  A
C1912      H1919   1.083       .  S
C1913      C1914   1.409       .  A
C1914      H1920   1.084   1_655  S
C1921      C1922   1.407       .  A
C1921      C1926   1.406       .  A
C1922      C1923   1.408       .  A
C1922      H1931   1.083       .  S
C1923      C1924   1.408       .  A
C1923      H1932   1.083       .  S
C1924      C1930   1.417       .  A
C1924      C1925   1.414       .  A
C1925      C1927   1.399       .  A
C1925      C1926   1.402       .  A
C1926      H1933   1.084       .  S
C1927      C1928   1.393       .  A
C1927      H1934   1.084       .  S
C1928      C1929   1.405       .  A
C1928      H1935   1.084       .  S
C1929      C1930   1.412       .  A
C1930      H1936   1.084       .  S
C1937      C1938   1.406       .  A
C1937      C1942   1.402       .  A
C1938      C1939   1.408       .  A
C1938      H1947   1.083       .  S
C1939      C1940   1.408       .  A
C1939      H1948   1.083       .  S
C1940      C1946   1.415       .  A
C1940      C1941   1.414       .  A
C1941      C1943   1.396       .  A
C1941      C1942   1.397       .  A
C1942      H1949   1.085       .  S
C1943      C1944   1.389       .  A
C1943      H1950   1.084       .  S
C1944      C1945   1.407       .  A
C1944      H1951   1.083       .  S
C1945      C1946   1.412       .  A
C1946      H1952   1.084       .  S
C1953      C1954   1.408       .  A
C1953      C1958   1.410       .  A
C1954      C1955   1.396       .  A
C1954      H1963   1.083       .  S
C1955      C1956   1.400       .  A
C1955      H1964   1.084       .  S
C1956      C1962   1.403       .  A
C1956      C1957   1.413       .  A
C1957      C1959   1.405       .  A
C1957      C1958   1.411       .  A
C1958      H1965   1.084       .  S
C1959      C1960   1.403       .  A
C1959      H1966   1.083       .  S
C1960      C1961   1.406       .  A
C1960      H1967   1.083       .  S
C1961      C1962   1.407       .  A
C1962      H1968   1.084       .  S
C1969      C1970   1.407       .  A
C1969      C1974   1.405       .  A
C1970      C1971   1.398       .  A
C1970      H1979   1.083       .  S
C1971      C1972   1.402       .  A
C1971      H1980   1.084       .  S
C1972      C1978   1.407       .  A
C1972      C1973   1.414       .  A
C1973      C1975   1.400       .  A
C1973      C1974   1.404       .  A
C1974      H1981   1.084       .  S
C1975      C1976   1.396       .  A
C1975      H1982   1.084       .  S
C1976      C1977   1.407       .  A
C1976      H1983   1.083       .  S
C1977      C1978   1.407       .  A
C1978      H1984   1.084       .  S
C1985      C1986   1.406       .  A
C1985      C1990   1.409       .  A
C1986      C1987   1.403       .  A
C1986      H1995   1.083       .  S
C1987      C1988   1.404       .  A
C1987      H1996   1.083       .  S
C1988      C1994   1.412       .  A
C1988      C1989   1.414       .  A
C1989      C1991   1.402       .  A
C1989      C1990   1.408       .  A
C1990      H1997   1.084       .  S
C1991      C1992   1.398       .  A
C1991      H1998   1.084       .  S
C1992      C1993   1.407       .  A
C1992      H1999   1.083       .  S
C1993      C1994   1.409       .  A
C1994      H2000   1.084       .  S
C2001      C2002   1.407       .  A
C2001      C2006   1.410       .  A
C2002      C2003   1.395       .  A
C2002      H2011   1.083       .  S
C2003      C2004   1.400       .  A
C2003      H2012   1.084       .  S
C2004      C2010   1.404       .  A
C2004      C2005   1.414       .  A
C2005      C2007   1.405       .  A
C2005      C2006   1.412       .  A
C2006      H2013   1.084       .  S
C2007      C2008   1.403       .  A
C2007      H2014   1.083       .  S
C2008      C2009   1.406       .  A
C2008      H2015   1.083       .  S
C2009      C2010   1.406       .  A
C2010      H2016   1.084       .  S
C2017      C2018   1.407       .  A
C2017      C2022   1.409       .  A
C2018      C2019   1.399       .  A
C2018      H2027   1.083       .  S
C2019      C2020   1.402       .  A
C2019      H2028   1.084       .  S
C2020      C2026   1.406       .  A
C2020      C2021   1.413       .  A
C2021      C2023   1.404       .  A
C2021      C2022   1.408       .  A
C2022      H2029   1.084       .  S
C2023      C2024   1.401       .  A
C2023      H2030   1.083       .  S
C2024      C2025   1.405       .  A
C2024      H2031   1.083       .  S
C2025      C2026   1.407       .  A
C2026      H2032   1.084       .  S
C2033      C2034   1.407       .  A
C2033      C2038   1.408       .  A
C2034      C2035   1.402       .  A
C2034      H2043   1.083       .  S
C2035      C2036   1.404       .  A
C2035      H2044   1.083       .  S
C2036      C2042   1.412       .  A
C2036      C2037   1.414       .  A
C2037      C2039   1.401       .  A
C2037      C2038   1.408       .  A
C2038      H2045   1.084       .  S
C2039      C2040   1.398       .  A
C2039      H2046   1.084       .  S
C2040      C2041   1.408       .  A
C2040      H2047   1.083       .  S
C2041      C2042   1.410       .  A
C2042      H2048   1.084       .  S
C2049      C2050   1.404       .  A
C2049      C2054   1.407       .  A
C2050      C2051   1.401       .  A
C2050      H2059   1.083       .  S
C2051      C2052   1.405       .  A
C2051      H2060   1.083       .  S
C2052      C2058   1.408       .  A
C2052      C2053   1.413       .  A
C2053      C2055   1.402       .  A
C2053      C2054   1.405       .  A
C2054      H2061   1.084       .  S
C2055      C2056   1.398       .  A
C2055      H2062   1.084       .  S
C2056      C2057   1.406       .  A
C2056      H2063   1.083       .  S
C2057      C2058   1.410       .  A
C2058      H2064   1.084       .  S
C2065      C2066   1.406       .  A
C2065      C2070   1.410       .  A
C2066      C2067   1.397       .  A
C2066      H2075   1.083       .  S
C2067      C2068   1.401       .  A
C2067      H2076   1.084       .  S
C2068      C2074   1.404       .  A
C2068      C2069   1.413       .  A
C2069      C2071   1.405       .  A
C2069      C2070   1.409       .  A
C2070      H2077   1.084       .  S
C2071      C2072   1.402       .  A
C2071      H2078   1.084       .  S
C2072      C2073   1.406       .  A
C2072      H2079   1.083       .  S
C2073      C2074   1.407       .  A
C2074      H2080   1.084       .  S
C2081      C2082   1.406       .  A
C2081      C2086   1.409       .  A
C2082      C2083   1.396       .  A
C2082      H2091   1.083       .  S
C2083      C2084   1.400       .  A
C2083      H2092   1.084       .  S
C2084      C2090   1.407       .  A
C2084      C2085   1.415       .  A
C2085      C2087   1.405       .  A
C2085      C2086   1.414       .  A
C2086      H2093   1.084       .  S
C2087      C2088   1.404       .  A
C2087      H2094   1.083       .  S
C2088      C2089   1.407       .  A
C2088      H2095   1.083       .  S
C2089      C2090   1.408       .  A
C2090      H2096   1.084       .  S
C2097      C2098   1.407       .  A
C2097      C2102   1.406       .  A
C2098      C2099   1.404       .  A
C2098      H2107   1.083       .  S
C2099      C2100   1.405       .  A
C2099      H2108   1.083       .  S
C2100      C2106   1.412       .  A
C2100      C2101   1.414       .  A
C2101      C2103   1.399       .  A
C2101      C2102   1.402       .  A
C2102      H2109   1.084       .  S
C2103      C2104   1.393       .  A
C2103      H2110   1.084       .  S
C2104      C2105   1.407       .  A
C2104      H2111   1.083       .  S
C2105      C2106   1.410       .  A
C2106      H2112   1.084       .  S
C2113      C2114   1.406       .  A
C2113      C2118   1.412       .  A
C2114      C2115   1.398       .  A
C2114      H2123   1.083       .  S
C2115      C2116   1.402       .  A
C2115      H2124   1.084       .  S
C2116      C2122   1.408       .  A
C2116      C2117   1.413       .  A
C2117      C2119   1.406       .  A
C2117      C2118   1.414       .  A
C2118      H2125   1.084       .  S
C2119      C2120   1.405       .  A
C2119      H2126   1.083       .  S
C2120      C2121   1.407       .  A
C2120      H2127   1.083       .  S
C2121      C2122   1.409       .  A
C2122      H2128   1.084       .  S
C2129      C2130   1.406       .  A
C2129      C2134   1.410       .  A
C2130      C2131   1.396       .  A
C2130      H2139   1.083       .  S
C2131      C2132   1.401       .  A
C2131      H2140   1.084       .  S
C2132      C2138   1.405       .  A
C2132      C2133   1.414       .  A
C2133      C2135   1.406       .  A
C2133      C2134   1.412       .  A
C2134      H2141   1.084       .  S
C2135      C2136   1.403       .  A
C2135      H2142   1.083       .  S
C2136      C2137   1.405       .  A
C2136      H2143   1.083       .  S
C2137      C2138   1.407       .  A
C2138      H2144   1.084       .  S
C2145      C2146   1.406       .  A
C2145      C2150   1.410       .  A
C2146      C2147   1.401       .  A
C2146      H2155   1.083       .  S
C2147      C2148   1.404       .  A
C2147      H2156   1.084       .  S
C2148      C2154   1.408       .  A
C2148      C2149   1.413       .  A
C2149      C2151   1.404       .  A
C2149      C2150   1.408       .  A
C2150      H2157   1.084       .  S
C2151      C2152   1.400       .  A
C2151      H2158   1.084       .  S
C2152      C2153   1.406       .  A
C2152      H2159   1.083       .  S
C2153      C2154   1.410       .  A
C2154      H2160   1.084       .  S
C2161      C2162   1.407       .  A
C2161      C2166   1.407       .  A
C2162      C2163   1.406       .  A
C2162      H2171   1.083       .  S
C2163      C2164   1.407       .  A
C2163      H2172   1.083       .  S
C2164      C2170   1.413       .  A
C2164      C2165   1.413       .  A
C2165      C2167   1.400       .  A
C2165      C2166   1.403       .  A
C2166      H2173   1.084       .  S
C2167      C2168   1.394       .  A
C2167      H2174   1.084       .  S
C2168      C2169   1.406       .  A
C2168      H2175   1.083       .  S
C2169      C2170   1.412       .  A
C2170      H2176   1.084       .  S
C2177      C2178   1.406       .  A
C2177      C2182   1.410       .  A
C2178      C2179   1.394       .  A
C2178      H2187   1.083       .  S
C2179      C2180   1.399       .  A
C2179      H2188   1.084       .  S
C2180      C2186   1.402       .  A
C2180      C2181   1.413       .  A
C2181      C2183   1.406       .  A
C2181      C2182   1.411       .  A
C2182      H2189   1.084       .  S
C2183      C2184   1.404       .  A
C2183      H2190   1.084       .  S
C2184      C2185   1.406       .  A
C2184      H2191   1.083       .  S
C2185      C2186   1.405       .  A
C2186      H2192   1.084       .  S
C2193      C2194   1.406       .  A
C2193      C2198   1.410       .  A
C2194      C2195   1.394       .  A
C2194      H2203   1.083       .  S
C2195      C2196   1.399       .  A
C2195      H2204   1.084       .  S
C2196      C2202   1.403       .  A
C2196      C2197   1.414       .  A
C2197      C2199   1.405       .  A
C2197      C2198   1.411       .  A
C2198      H2205   1.084       .  S
C2199      C2200   1.403       .  A
C2199      H2206   1.083       .  S
C2200      C2201   1.406       .  A
C2200      H2207   1.083       .  S
C2201      C2202   1.404       .  A
C2202      H2208   1.084       .  S
C2209      C2210   1.405       .  A
C2209      C2214   1.408       .  A
C2210      C2211   1.403       .  A
C2210      H2219   1.083       .  S
C2211      C2212   1.405       .  A
C2211      H2220   1.083       .  S
C2212      C2218   1.412       .  A
C2212      C2213   1.414       .  A
C2213      C2215   1.402       .  A
C2213      C2214   1.407       .  A
C2214      H2221   1.084       .  S
C2215      C2216   1.398       .  A
C2215      H2222   1.084       .  S
C2216      C2217   1.407       .  A
C2216      H2223   1.083       .  S
C2217      C2218   1.410       .  A
C2218      H2224   1.084       .  S
C2225      C2226   1.406       .  A
C2225      C2230   1.410       .  A
C2226      C2227   1.396       .  A
C2226      H2235   1.083       .  S
C2227      C2228   1.401       .  A
C2227      H2236   1.084       .  S
C2228      C2234   1.403       .  A
C2228      C2229   1.414       .  A
C2229      C2231   1.406       .  A
C2229      C2230   1.410       .  A
C2230      H2237   1.084       .  S
C2231      C2232   1.402       .  A
C2231      H2238   1.083       .  S
C2232      C2233   1.404       .  A
C2232      H2239   1.083       .  S
C2233      C2234   1.404       .  A
C2234      H2240   1.085       .  S
C2241      C2242   1.405       .  A
C2241      C2246   1.406       .  A
C2242      C2243   1.404       .  A
C2242      H2251   1.083       .  S
C2243      C2244   1.406       .  A
C2243      H2252   1.083       .  S
C2244      C2250   1.411       .  A
C2244      C2245   1.414       .  A
C2245      C2247   1.400       .  A
C2245      C2246   1.402       .  A
C2246      H2253   1.085       .  S
C2247      C2248   1.394       .  A
C2247      H2254   1.084       .  S
C2248      C2249   1.405       .  A
C2248      H2255   1.084       .  S
C2249      C2250   1.407       .  A
C2250      H2256   1.084       .  S
C2257      C2258   1.406       .  A
C2257      C2262   1.412       .  A
C2258      C2259   1.392       .  A
C2258      H2267   1.083       .  S
C2259      C2260   1.398       .  A
C2259      H2268   1.084       .  S
C2260      C2266   1.402       .  A
C2260      C2261   1.414       .  A
C2261      C2263   1.408       .  A
C2261      C2262   1.416       .  A
C2262      H2269   1.084       .  S
C2263      C2264   1.408       .  A
C2263      H2270   1.083       .  S
C2264      C2265   1.407       .  A
C2264      H2271   1.083       .  S
C2265      C2266   1.406       .  A
C2266      H2272   1.084       .  S
C2273      C2274   1.404       .  A
C2273      C2278   1.406       .  A
C2274      C2275   1.394       .  A
C2274      H2283   1.084       .  S
C2275      C2276   1.400       .  A
C2275      H2284   1.084       .  S
C2276      C2282   1.403       .  A
C2276      C2277   1.415       .  A
C2277      C2279   1.404       .  A
C2277      C2278   1.411       .  A
C2278      H2285   1.084       .  S
C2279      C2280   1.402       .  A
C2279      H2286   1.083       .  S
C2280      C2281   1.406       .  A
C2280      H2287   1.083       .  S
C2281      C2282   1.406       .  A
C2282      H2288   1.084       .  S
C2289      C2290   1.407       .  A
C2289      C2294   1.402       .  A
C2290      C2291   1.408       .  A
C2290      H2299   1.083       .  S
C2291      C2292   1.408       .  A
C2291      H2300   1.083       .  S
C2292      C2298   1.417       .  A
C2292      C2293   1.415       .  A
C2293      C2295   1.395       .  A
C2293      C2294   1.400       .  A
C2294      H2301   1.085       .  S
C2295      C2296   1.389       .  A
C2295      H2302   1.084       .  S
C2296      C2297   1.406       .  A
C2296      H2303   1.083       .  S
C2297      C2298   1.412       .  A
C2298      H2304   1.084       .  S
C2305      C2306   1.407       .  A
C2305      C2310   1.411       .  A
C2306      C2307   1.391       .  A
C2306      H2315   1.083       .  S
C2307      C2308   1.398       .  A
C2307      H2316   1.084       .  S
C2308      C2314   1.401       .  A
C2308      C2309   1.414       .  A
C2309      C2311   1.406       .  A
C2309      C2310   1.414       .  A
C2310      H2317   1.084       .  S
C2311      C2312   1.406       .  A
C2311      H2318   1.083       .  S
C2312      C2313   1.407       .  A
C2312      H2319   1.083       .  S
C2313      C2314   1.405       .  A
C2314      H2320   1.084       .  S
C2321      C2322   1.407       .  A
C2321      C2326   1.405       .  A
C2322      C2323   1.404       .  A
C2322      H2331   1.083       .  S
C2323      C2324   1.406       .  A
C2323      H2332   1.083       .  S
C2324      C2330   1.412       .  A
C2324      C2325   1.414       .  A
C2325      C2327   1.399       .  A
C2325      C2326   1.402       .  A
C2326      H2333   1.084       .  S
C2327      C2328   1.394       .  A
C2327      H2334   1.084       .  S
C2328      C2329   1.405       .  A
C2328      H2335   1.083       .  S
C2329      C2330   1.411       .  A
C2330      H2336   1.084       .  S
C2337      C2338   1.407       .  A
C2337      C2342   1.408       .  A
C2338      C2339   1.396       .  A
C2338      H2347   1.083       .  S
C2339      C2340   1.400       .  A
C2339      H2348   1.084       .  S
C2340      C2346   1.405       .  A
C2340      C2341   1.414       .  A
C2341      C2343   1.404       .  A
C2341      C2342   1.410       .  A
C2342      H2349   1.084       .  S
C2343      C2344   1.401       .  A
C2343      H2350   1.083       .  S
C2344      C2345   1.406       .  A
C2344      H2351   1.083       .  S
C2345      C2346   1.406       .  A
C2346      H2352   1.084       .  S
C2353      C2354   1.408       .  A
C2353      C2358   1.410       .  A
C2354      C2355   1.390       .  A
C2354      H2363   1.083       .  S
C2355      C2356   1.396       .  A
C2355      H2364   1.084       .  S
C2356      C2362   1.398       .  A
C2356      C2357   1.414       .  A
C2357      C2359   1.407       .  A
C2357      C2358   1.413       .  A
C2358      H2365   1.084       .  S
C2359      C2360   1.406       .  A
C2359      H2366   1.083       .  S
C2360      C2361   1.406       .  A
C2360      H2367   1.083       .  S
C2361      C2362   1.403       .  A
C2362      H2368   1.085       .  S
C2369      C2370   1.406       .  A
C2369      C2374   1.412       .  A
C2370      C2371   1.391       .  A
C2370      H2379   1.083       .  S
C2371      C2372   1.397       .  A
C2371      H2380   1.084       .  S
C2372      C2378   1.400       .  A
C2372      C2373   1.414       .  A
C2373      C2375   1.407       .  A
C2373      C2374   1.414       .  A
C2374      H2381   1.084       .  S
C2375      C2376   1.406       .  A
C2375      H2382   1.083       .  S
C2376      C2377   1.407       .  A
C2376      H2383   1.083       .  S
C2377      C2378   1.404       .  A
C2378      H2384   1.084       .  S
C2385      C2386   1.405       .  A
C2385      C2390   1.404       .  A
C2386      C2387   1.405       .  A
C2386      H2395   1.083       .  S
C2387      C2388   1.407       .  A
C2387      H2396   1.083       .  S
C2388      C2394   1.413       .  A
C2388      C2389   1.414       .  A
C2389      C2391   1.399       .  A
C2389      C2390   1.401       .  A
C2390      H2397   1.085       .  S
C2391      C2392   1.393       .  A
C2391      H2398   1.084       .  S
C2392      C2393   1.406       .  A
C2392      H2399   1.083       .  S
C2393      C2394   1.411       .  A
C2394      H2400   1.084       .  S
C2401      C2402   1.405       .  A
C2401      C2406   1.405       .  A
C2402      C2403   1.402       .  A
C2402      H2411   1.083       .  S
C2403      C2404   1.405       .  A
C2403      H2412   1.084       .  S
C2404      C2410   1.407       .  A
C2404      C2405   1.413       .  A
C2405      C2407   1.400       .  A
C2405      C2406   1.399       .  A
C2406      H2413   1.084       .  S
C2407      C2408   1.393       .  A
C2407      H2414   1.084       .  S
C2408      C2409   1.404       .  A
C2408      H2415   1.083       .  S
C2409      C2410   1.409       .  A
C2410      H2416   1.084       .  S
C2417      C2418   1.407       .  A
C2417      C2422   1.409       .  A
C2418      C2419   1.396       .  A
C2418      H2427   1.083       .  S
C2419      C2420   1.401       .  A
C2419      H2428   1.084       .  S
C2420      C2426   1.403       .  A
C2420      C2421   1.414       .  A
C2421      C2423   1.405       .  A
C2421      C2422   1.409       .  A
C2422      H2429   1.084       .  S
C2423      C2424   1.401       .  A
C2423      H2430   1.083       .  S
C2424      C2425   1.405       .  A
C2424      H2431   1.083       .  S
C2425      C2426   1.406       .  A
C2426      H2432   1.085       .  S
C2433      C2434   1.406       .  A
C2433      C2438   1.408       .  A
C2434      C2435   1.393       .  A
C2434      H2443   1.083       .  S
C2435      C2436   1.398       .  A
C2435      H2444   1.084       .  S
C2436      C2442   1.402       .  A
C2436      C2437   1.415       .  A
C2437      C2439   1.404       .  A
C2437      C2438   1.410       .  A
C2438      H2445   1.084       .  S
C2439      C2440   1.402       .  A
C2439      H2446   1.083       .  S
C2440      C2441   1.407       .  A
C2440      H2447   1.083       .  S
C2441      C2442   1.403       .  A
C2442      H2448   1.084       .  S
C2449      C2450   1.405       .  A
C2449      C2454   1.406       .  A
C2450      C2451   1.405       .  A
C2450      H2459   1.083       .  S
C2451      C2452   1.406       .  A
C2451      H2460   1.083       .  S
C2452      C2458   1.413       .  A
C2452      C2453   1.413       .  A
C2453      C2455   1.399       .  A
C2453      C2454   1.402       .  A
C2454      H2461   1.084       .  S
C2455      C2456   1.394       .  A
C2455      H2462   1.084       .  S
C2456      C2457   1.407       .  A
C2456      H2463   1.083       .  S
C2457      C2458   1.411       .  A
C2458      H2464   1.084       .  S
C2465      C2466   1.408       .  A
C2465      C2470   1.410       .  A
C2466      C2467   1.394       .  A
C2466      H2475   1.083       .  S
C2467      C2468   1.399       .  A
C2467      H2476   1.084       .  S
C2468      C2474   1.404       .  A
C2468      C2469   1.414       .  A
C2469      C2471   1.406       .  A
C2469      C2470   1.414       .  A
C2470      H2477   1.084       .  S
C2471      C2472   1.405       .  A
C2471      H2478   1.083       .  S
C2472      C2473   1.406       .  A
C2472      H2479   1.083       .  S
C2473      C2474   1.405       .  A
C2474      H2480   1.084       .  S
C2481      C2482   1.407       .  A
C2481      C2486   1.410       .  A
C2482      C2483   1.396       .  A
C2482      H2491   1.083       .  S
C2483      C2484   1.400       .  A
C2483      H2492   1.084       .  S
C2484      C2490   1.408       .  A
C2484      C2485   1.414       .  A
C2485      C2487   1.405       .  A
C2485      C2486   1.415       .  A
C2486      H2493   1.084       .  S
C2487      C2488   1.404       .  A
C2487      H2494   1.083       .  S
C2488      C2489   1.407       .  A
C2488      H2495   1.083       .  S
C2489      C2490   1.409       .  A
C2490      H2496   1.084       .  S
C2497      C2498   1.405       .  A
C2497      C2502   1.410       .  A
C2498      C2499   1.398       .  A
C2498      H2507   1.083       .  S
C2499      C2500   1.402       .  A
C2499      H2508   1.084       .  S
C2500      C2506   1.405       .  A
C2500      C2501   1.413       .  A
C2501      C2503   1.406       .  A
C2501      C2502   1.409       .  A
C2502      H2509   1.084       .  S
C2503      C2504   1.402       .  A
C2503      H2510   1.083       .  S
C2504      C2505   1.404       .  A
C2504      H2511   1.083       .  S
C2505      C2506   1.406       .  A
C2506      H2512   1.084       .  S
C2513      C2514   1.408       .  A
C2513      C2518   1.405       .  A
C2514      C2515   1.407       .  A
C2514      H2523   1.083       .  S
C2515      C2516   1.407       .  A
C2515      H2524   1.083       .  S
C2516      C2522   1.415       .  A
C2516      C2517   1.414       .  A
C2517      C2519   1.399       .  A
C2517      C2518   1.402       .  A
C2518      H2525   1.084       .  S
C2519      C2520   1.393       .  A
C2519      H2526   1.084       .  S
C2520      C2521   1.405       .  A
C2520      H2527   1.083       .  S
C2521      C2522   1.412       .  A
C2522      H2528   1.084       .  S
C2529      C2530   1.407       .  A
C2529      C2534   1.406       .  A
C2530      C2531   1.407       .  A
C2530      H2539   1.083       .  S
C2531      C2532   1.407       .  A
C2531      H2540   1.083       .  S
C2532      C2538   1.416       .  A
C2532      C2533   1.414       .  A
C2533      C2535   1.399       .  A
C2533      C2534   1.404       .  A
C2534      H2541   1.084       .  S
C2535      C2536   1.394       .  A
C2535      H2542   1.084       .  S
C2536      C2537   1.407       .  A
C2536      H2543   1.083       .  S
C2537      C2538   1.413       .  A
C2538      H2544   1.084       .  S
C2545      C2546   1.407       .  A
C2545      C2550   1.412       .  A
C2546      C2547   1.395       .  A
C2546      H2555   1.083       .  S
C2547      C2548   1.400       .  A
C2547      H2556   1.084       .  S
C2548      C2554   1.404       .  A
C2548      C2549   1.413       .  A
C2549      C2551   1.407       .  A
C2549      C2550   1.415       .  A
C2550      H2557   1.084       .  S
C2551      C2552   1.406       .  A
C2551      H2558   1.083       .  S
C2552      C2553   1.406       .  A
C2552      H2559   1.083       .  S
C2553      C2554   1.408       .  A
C2554      H2560   1.084       .  S
C2561      C2562   1.408       .  A
C2561      C2566   1.410       .  A
C2562      C2563   1.398       .  A
C2562      H2571   1.083       .  S
C2563      C2564   1.401       .  A
C2563      H2572   1.084       .  S
C2564      C2570   1.407       .  A
C2564      C2565   1.414       .  A
C2565      C2567   1.405       .  A
C2565      C2566   1.412       .  A
C2566      H2573   1.084       .  S
C2567      C2568   1.403       .  A
C2567      H2574   1.083       .  S
C2568      C2569   1.406       .  A
C2568      H2575   1.083       .  S
C2569      C2570   1.408       .  A
C2570      H2576   1.084       .  S
C2577      C2578   1.406       .  A
C2577      C2582   1.405       .  A
C2578      C2579   1.403       .  A
C2578      H2587   1.083       .  S
C2579      C2580   1.405       .  A
C2579      H2588   1.083       .  S
C2580      C2586   1.412       .  A
C2580      C2581   1.415       .  A
C2581      C2583   1.399       .  A
C2581      C2582   1.405       .  A
C2582      H2589   1.084       .  S
C2583      C2584   1.395       .  A
C2583      H2590   1.084       .  S
C2584      C2585   1.407       .  A
C2584      H2591   1.083       .  S
C2585      C2586   1.410       .  A
C2586      H2592   1.084       .  S
C2593      C2594   1.405       .  A
C2593      C2598   1.408       .  A
C2594      C2595   1.399       .  A
C2594      H2603   1.083       .  S
C2595      C2596   1.403       .  A
C2595      H2604   1.084       .  S
C2596      C2602   1.406       .  A
C2596      C2597   1.413       .  A
C2597      C2599   1.403       .  A
C2597      C2598   1.407       .  A
C2598      H2605   1.084       .  S
C2599      C2600   1.400       .  A
C2599      H2606   1.083       .  S
C2600      C2601   1.405       .  A
C2600      H2607   1.083       .  S
C2601      C2602   1.407       .  A
C2602      H2608   1.084       .  S
C2609      C2610   1.406       .  A
C2609      C2614   1.410       .  A
C2610      C2611   1.394       .  A
C2610      H2619   1.083       .  S
C2611      C2612   1.399       .  A
C2611      H2620   1.084       .  S
C2612      C2618   1.403       .  A
C2612      C2613   1.414       .  A
C2613      C2615   1.406       .  A
C2613      C2614   1.414       .  A
C2614      H2621   1.084       .  S
C2615      C2616   1.405       .  A
C2615      H2622   1.083       .  S
C2616      C2617   1.406       .  A
C2616      H2623   1.083       .  S
C2617      C2618   1.406       .  A
C2618      H2624   1.084       .  S
C2625      C2626   1.405       .  A
C2625      C2630   1.409       .  A
C2626      C2627   1.398       .  A
C2626      H2635   1.083       .  S
C2627      C2628   1.402       .  A
C2627      H2636   1.083       .  S
C2628      C2634   1.408       .  A
C2628      C2629   1.414       .  A
C2629      C2631   1.405       .  A
C2629      C2630   1.412       .  A
C2630      H2637   1.084       .  S
C2631      C2632   1.403       .  A
C2631      H2638   1.083       .  S
C2632      C2633   1.407       .  A
C2632      H2639   1.083       .  S
C2633      C2634   1.409       .  A
C2634      H2640   1.084       .  S
C2641      C2642   1.407       .  A
C2641      C2646   1.406       .  A
C2642      C2643   1.405       .  A
C2642      H2651   1.083       .  S
C2643      C2644   1.406       .  A
C2643      H2652   1.083       .  S
C2644      C2650   1.414       .  A
C2644      C2645   1.414       .  A
C2645      C2647   1.399       .  A
C2645      C2646   1.404       .  A
C2646      H2653   1.084       .  S
C2647      C2648   1.394       .  A
C2647      H2654   1.084       .  S
C2648      C2649   1.406       .  A
C2648      H2655   1.083       .  S
C2649      C2650   1.411       .  A
C2650      H2656   1.084       .  S
C2657      C2658   1.405       .  A
C2657      C2662   1.405       .  A
C2658      C2659   1.406       .  A
C2658      H2667   1.083       .  S
C2659      C2660   1.407       .  A
C2659      H2668   1.083       .  S
C2660      C2666   1.414       .  A
C2660      C2661   1.414       .  A
C2661      C2663   1.398       .  A
C2661      C2662   1.401       .  A
C2662      H2669   1.085       .  S
C2663      C2664   1.391       .  A
C2663      H2670   1.084       .  S
C2664      C2665   1.408       .  A
C2664      H2671   1.083       .  S
C2665      C2666   1.411       .  A
C2666      H2672   1.084       .  S
C2673      C2674   1.403       .  A
C2673      C2678   1.405       .  A
C2674      C2675   1.396       .  A
C2674      H2683   1.084       .  S
C2675      C2676   1.402       .  A
C2675      H2684   1.084       .  S
C2676      C2682   1.403       .  A
C2676      C2677   1.415       .  A
C2677      C2679   1.405       .  A
C2677      C2678   1.409       .  A
C2678      H2685   1.084       .  S
C2679      C2680   1.402       .  A
C2679      H2686   1.083       .  S
C2680      C2681   1.404       .  A
C2680      H2687   1.083       .  S
C2681      C2682   1.406       .  A
C2682      H2688   1.085       .  S
C2689      C2690   1.405       .  A
C2689      C2694   1.406       .  A
C2690      C2691   1.401       .  A
C2690      H2699   1.083       .  S
C2691      C2692   1.405       .  A
C2691      H2700   1.084       .  S
C2692      C2698   1.407       .  A
C2692      C2693   1.413       .  A
C2693      C2695   1.403       .  A
C2693      C2694   1.403       .  A
C2694      H2701   1.084       .  S
C2695      C2696   1.398       .  A
C2695      H2702   1.084       .  S
C2696      C2697   1.402       .  A
C2696      H2703   1.083       .  S
C2697      C2698   1.408       .  A
C2698      H2704   1.084       .  S
C2705      C2706   1.406       .  A
C2705      C2710   1.410       .  A
C2706      C2707   1.401       .  A
C2706      H2715   1.083       .  S
C2707      C2708   1.404       .  A
C2707      H2716   1.084       .  S
C2708      C2714   1.409       .  A
C2708      C2709   1.413       .  A
C2709      C2711   1.404       .  A
C2709      C2710   1.409       .  A
C2710      H2717   1.084       .  S
C2711      C2712   1.401       .  A
C2711      H2718   1.084       .  S
C2712      C2713   1.405       .  A
C2712      H2719   1.083       .  S
C2713      C2714   1.409       .  A
C2714      H2720   1.084       .  S
C2721      C2722   1.408       .  A
C2721      C2726   1.411       .  A
C2722      C2723   1.397       .  A
C2722      H2731   1.083       .  S
C2723      C2724   1.401       .  A
C2723      H2732   1.084       .  S
C2724      C2730   1.408       .  A
C2724      C2725   1.414       .  A
C2725      C2727   1.405       .  A
C2725      C2726   1.413       .  A
C2726      H2733   1.084       .  S
C2727      C2728   1.404       .  A
C2727      H2734   1.083       .  S
C2728      C2729   1.407       .  A
C2728      H2735   1.083       .  S
C2729      C2730   1.408       .  A
C2730      H2736   1.084       .  S
C2737      C2738   1.406       .  A
C2737      C2742   1.407       .  A
C2738      C2739   1.402       .  A
C2738      H2747   1.083       .  S
C2739      C2740   1.405       .  A
C2739      H2748   1.083       .  S
C2740      C2746   1.411       .  A
C2740      C2741   1.413       .  A
C2741      C2743   1.401       .  A
C2741      C2742   1.406       .  A
C2742      H2749   1.084       .  S
C2743      C2744   1.397       .  A
C2743      H2750   1.084       .  S
C2744      C2745   1.406       .  A
C2744      H2751   1.083       .  S
C2745      C2746   1.411       .  A
C2746      H2752   1.084       .  S
C2753      C2754   1.404       .  A
C2753      C2758   1.408       .  A
C2754      C2755   1.400       .  A
C2754      H2763   1.083       .  S
C2755      C2756   1.404       .  A
C2755      H2764   1.083       .  S
C2756      C2762   1.407       .  A
C2756      C2757   1.413       .  A
C2757      C2759   1.403       .  A
C2757      C2758   1.406       .  A
C2758      H2765   1.084       .  S
C2759      C2760   1.399       .  A
C2759      H2766   1.084       .  S
C2760      C2761   1.406       .  A
C2760      H2767   1.083       .  S
C2761      C2762   1.408       .  A
C2762      H2768   1.084       .  S
C2769      C2770   1.406       .  A
C2769      C2774   1.408       .  A
C2770      C2771   1.405       .  A
C2770      H2779   1.083       .  S
C2771      C2772   1.406       .  A
C2771      H2780   1.083       .  S
C2772      C2778   1.414       .  A
C2772      C2773   1.414       .  A
C2773      C2775   1.400       .  A
C2773      C2774   1.406       .  A
C2774      H2781   1.084       .  S
C2775      C2776   1.396       .  A
C2775      H2782   1.084       .  S
C2776      C2777   1.407       .  A
C2776      H2783   1.083       .  S
C2777      C2778   1.411       .  A
C2778      H2784   1.084       .  S
C2785      C2786   1.405       .  A
C2785      C2790   1.409       .  A
C2786      C2787   1.399       .  A
C2786      H2795   1.083       .  S
C2787      C2788   1.403       .  A
C2787      H2796   1.084       .  S
C2788      C2794   1.404       .  A
C2788      C2789   1.413       .  A
C2789      C2791   1.404       .  A
C2789      C2790   1.404       .  A
C2790      H2797   1.084       .  S
C2791      C2792   1.399       .  A
C2791      H2798   1.084       .  S
C2792      C2793   1.404       .  A
C2792      H2799   1.083       .  S
C2793      C2794   1.407       .  A
C2794      H2800   1.084       .  S
C2801      C2802   1.405       .  A
C2801      C2806   1.411       .  A
C2802      C2803   1.398       .  A
C2802      H2811   1.083       .  S
C2803      C2804   1.402       .  A
C2803      H2812   1.083       .  S
C2804      C2810   1.407       .  A
C2804      C2805   1.414       .  A
C2805      C2807   1.406       .  A
C2805      C2806   1.411       .  A
C2806      H2813   1.084       .  S
C2807      C2808   1.403       .  A
C2807      H2814   1.084       .  S
C2808      C2809   1.404       .  A
C2808      H2815   1.083       .  S
C2809      C2810   1.405       .  A
C2810      H2816   1.084       .  S
C2817      C2818   1.406       .  A
C2817      C2822   1.412       .  A
C2818      C2819   1.395       .  A
C2818      H2827   1.083       .  S
C2819      C2820   1.400       .  A
C2819      H2828   1.084       .  S
C2820      C2826   1.405       .  A
C2820      C2821   1.414       .  A
C2821      C2823   1.407       .  A
C2821      C2822   1.415       .  A
C2822      H2829   1.084       .  S
C2823      C2824   1.406       .  A
C2823      H2830   1.083       .  S
C2824      C2825   1.407       .  A
C2824      H2831   1.083       .  S
C2825      C2826   1.406       .  A
C2826      H2832   1.084       .  S
C2833      C2834   1.407       .  A
C2833      C2838   1.406       .  A
C2834      C2835   1.404       .  A
C2834      H2843   1.083       .  S
C2835      C2836   1.405       .  A
C2835      H2844   1.083       .  S
C2836      C2842   1.412       .  A
C2836      C2837   1.414       .  A
C2837      C2839   1.400       .  A
C2837      C2838   1.405       .  A
C2838      H2845   1.084       .  S
C2839      C2840   1.395       .  A
C2839      H2846   1.084       .  S
C2840      C2841   1.406       .  A
C2840      H2847   1.083       .  S
C2841      C2842   1.410       .  A
C2842      H2848   1.084       .  S
C2849      C2850   1.408       .  A
C2849      C2854   1.406       .  A
C2850      C2851   1.405       .  A
C2850      H2859   1.083       .  S
C2851      C2852   1.406       .  A
C2851      H2860   1.083       .  S
C2852      C2858   1.414       .  A
C2852      C2853   1.414       .  A
C2853      C2855   1.399       .  A
C2853      C2854   1.403       .  A
C2854      H2861   1.084       .  S
C2855      C2856   1.394       .  A
C2855      H2862   1.084       .  S
C2856      C2857   1.406       .  A
C2856      H2863   1.083       .  S
C2857      C2858   1.410       .  A
C2858      H2864   1.084       .  S
C2865      C2866   1.408       .  A
C2865      C2870   1.406       .  A
C2866      C2867   1.406       .  A
C2866      H2875   1.083       .  S
C2867      C2868   1.406       .  A
C2867      H2876   1.083       .  S
C2868      C2874   1.416       .  A
C2868      C2869   1.414       .  A
C2869      C2871   1.399       .  A
C2869      C2870   1.406       .  A
C2870      H2877   1.084       .  S
C2871      C2872   1.394       .  A
C2871      H2878   1.083       .  S
C2872      C2873   1.406       .  A
C2872      H2879   1.083       .  S
C2873      C2874   1.413       .  A
C2874      H2880   1.084       .  S
C2881      C2882   1.406       .  A
C2881      C2886   1.407       .  A
C2882      C2883   1.401       .  A
C2882      H2891   1.083       .  S
C2883      C2884   1.404       .  A
C2883      H2892   1.083       .  S
C2884      C2890   1.410       .  A
C2884      C2885   1.413       .  A
C2885      C2887   1.401       .  A
C2885      C2886   1.405       .  A
C2886      H2893   1.084       .  S
C2887      C2888   1.397       .  A
C2887      H2894   1.084       .  S
C2888      C2889   1.406       .  A
C2888      H2895   1.083       .  S
C2889      C2890   1.410       .  A
C2890      H2896   1.084       .  S
C2897      C2898   1.407       .  A
C2897      C2902   1.410       .  A
C2898      C2899   1.395       .  A
C2898      H2907   1.083       .  S
C2899      C2900   1.399       .  A
C2899      H2908   1.084       .  S
C2900      C2906   1.406       .  A
C2900      C2901   1.415       .  A
C2901      C2903   1.405       .  A
C2901      C2902   1.414       .  A
C2902      H2909   1.084       .  S
C2903      C2904   1.403       .  A
C2903      H2910   1.083       .  S
C2904      C2905   1.407       .  A
C2904      H2911   1.083       .  S
C2905      C2906   1.407       .  A
C2906      H2912   1.084       .  S
C2913      C2914   1.406       .  A
C2913      C2918   1.411       .  A
C2914      C2915   1.399       .  A
C2914      H2923   1.083       .  S
C2915      C2916   1.403       .  A
C2915      H2924   1.083       .  S
C2916      C2922   1.409       .  A
C2916      C2917   1.413       .  A
C2917      C2919   1.405       .  A
C2917      C2918   1.411       .  A
C2918      H2925   1.084       .  S
C2919      C2920   1.403       .  A
C2919      H2926   1.084       .  S
C2920      C2921   1.406       .  A
C2920      H2927   1.083       .  S
C2921      C2922   1.410       .  A
C2922      H2928   1.084       .  S
C2929      C2930   1.407       .  A
C2929      C2934   1.407       .  A
C2930      C2931   1.404       .  A
C2930      H2939   1.083       .  S
C2931      C2932   1.405       .  A
C2931      H2940   1.083       .  S
C2932      C2938   1.413       .  A
C2932      C2933   1.414       .  A
C2933      C2935   1.400       .  A
C2933      C2934   1.406       .  A
C2934      H2941   1.084       .  S
C2935      C2936   1.395       .  A
C2935      H2942   1.084       .  S
C2936      C2937   1.406       .  A
C2936      H2943   1.083       .  S
C2937      C2938   1.410       .  A
C2938      H2944   1.084       .  S
C2945      C2946   1.406       .  A
C2945      C2950   1.407       .  A
C2946      C2947   1.394       .  A
C2946      H2955   1.083       .  S
C2947      C2948   1.399       .  A
C2947      H2956   1.084       .  S
C2948      C2954   1.403       .  A
C2948      C2949   1.415       .  A
C2949      C2951   1.404       .  A
C2949      C2950   1.411       .  A
C2950      H2957   1.084       .  S
C2951      C2952   1.402       .  A
C2951      H2958   1.083       .  S
C2952      C2953   1.406       .  A
C2952      H2959   1.083       .  S
C2953      C2954   1.406       .  A
C2954      H2960   1.084       .  S
C2961      C2962   1.405       .  A
C2961      C2966   1.408       .  A
C2962      C2963   1.401       .  A
C2962      H2971   1.083       .  S
C2963      C2964   1.405       .  A
C2963      H2972   1.083       .  S
C2964      C2970   1.408       .  A
C2964      C2965   1.413       .  A
C2965      C2967   1.404       .  A
C2965      C2966   1.406       .  A
C2966      H2973   1.084       .  S
C2967      C2968   1.399       .  A
C2967      H2974   1.084       .  S
C2968      C2969   1.404       .  A
C2968      H2975   1.083       .  S
C2969      C2970   1.408       .  A
C2970      H2976   1.084       .  S
C2977      C2978   1.409       .  A
C2977      C2982   1.408       .  A
C2978      C2979   1.404       .  A
C2978      H2987   1.067       .  S
C2979      C2980   1.403       .  A
C2979      H2988   1.093       .  S
C2980      C2986   1.414       .  A
C2980      C2981   1.415       .  A
C2981      C2983   1.401       .  A
C2981      C2982   1.408       .  A
C2982      H2989   1.089       .  S
C2983      C2984   1.397       .  A
C2983      H2990   1.083       .  S
C2984      C2985   1.407       .  A
C2984      H2991   1.081       .  S
C2985      C2986   1.409       .  A
C2986      H2992   1.081       .  S
C2993      C2994   1.407       .  A
C2993      C2998   1.407       .  A
C2994      C2995   1.402       .  A
C2994      H3003   1.083       .  S
C2995      C2996   1.404       .  A
C2995      H3004   1.083       .  S
C2996      C3002   1.410       .  A
C2996      C2997   1.414       .  A
C2997      C2999   1.401       .  A
C2997      C2998   1.405       .  A
C2998      H3005   1.084       .  S
C2999      C3000   1.397       .  A
C2999      H3006   1.084       .  S
C3000      C3001   1.406       .  A
C3000      H3007   1.083       .  S
C3001      C3002   1.409       .  A
C3002      H3008   1.084       .  S
C3009      C3010   1.406       .  A
C3009      C3014   1.409       .  A
C3010      C3011   1.400       .  A
C3010      H3019   1.083       .  S
C3011      C3012   1.403       .  A
C3011      H3020   1.083       .  S
C3012      C3018   1.409       .  A
C3012      C3013   1.414       .  A
C3013      C3015   1.402       .  A
C3013      C3014   1.407       .  A
C3014      H3021   1.084       .  S
C3015      C3016   1.399       .  A
C3015      H3022   1.084       .  S
C3016      C3017   1.407       .  A
C3016      H3023   1.083       .  S
C3017      C3018   1.407       .  A
C3018      H3024   1.084       .  S
C3025      C3026   1.407       .  A
C3025      C3030   1.408       .  A
C3026      C3027   1.407       .  A
C3026      H3035   1.083       .  S
C3027      C3028   1.407       .  A
C3027      H3036   1.083       .  S
C3028      C3034   1.417       .  A
C3028      C3029   1.414       .  A
C3029      C3031   1.400       .  A
C3029      C3030   1.406       .  A
C3030      H3037   1.084       .  S
C3031      C3032   1.396       .  A
C3031      H3038   1.084       .  S
C3032      C3033   1.408       .  A
C3032      H3039   1.083       .  S
C3033      C3034   1.413       .  A
C3034      H3040   1.084       .  S
C3041      C3042   1.406       .  A
C3041      C3046   1.408       .  A
C3042      C3043   1.400       .  A
C3042      H3051   1.083       .  S
C3043      C3044   1.404       .  A
C3043      H3052   1.084       .  S
C3044      C3050   1.408       .  A
C3044      C3045   1.413       .  A
C3045      C3047   1.403       .  A
C3045      C3046   1.407       .  A
C3046      H3053   1.084       .  S
C3047      C3048   1.399       .  A
C3047      H3054   1.083       .  S
C3048      C3049   1.405       .  A
C3048      H3055   1.083       .  S
C3049      C3050   1.409       .  A
C3050      H3056   1.084       .  S
C3057      C3058   1.407       .  A
C3057      C3062   1.406       .  A
C3058      C3059   1.406       .  A
C3058      H3067   1.083       .  S
C3059      C3060   1.406       .  A
C3059      H3068   1.083       .  S
C3060      C3066   1.414       .  A
C3060      C3061   1.414       .  A
C3061      C3063   1.398       .  A
C3061      C3062   1.403       .  A
C3062      H3069   1.084       .  S
C3063      C3064   1.393       .  A
C3063      H3070   1.084       .  S
C3064      C3065   1.407       .  A
C3064      H3071   1.083       .  S
C3065      C3066   1.411       .  A
C3066      H3072   1.084       .  S
C3073      C3074   1.406       .  A
C3073      C3078   1.408       .  A
C3074      C3075   1.402       .  A
C3074      H3083   1.083       .  S
C3075      C3076   1.405       .  A
C3075      H3084   1.084       .  S
C3076      C3082   1.408       .  A
C3076      C3077   1.413       .  A
C3077      C3079   1.403       .  A
C3077      C3078   1.406       .  A
C3078      H3085   1.084       .  S
C3079      C3080   1.399       .  A
C3079      H3086   1.084       .  S
C3080      C3081   1.404       .  A
C3080      H3087   1.083       .  S
C3081      C3082   1.409       .  A
C3082      H3088   1.084       .  S
C3089      C3090   1.407       .  A
C3089      C3094   1.409       .  A
C3090      C3091   1.402       .  A
C3090      H3099   1.083       .  S
C3091      C3092   1.404       .  A
C3091      H3100   1.083       .  S
C3092      C3098   1.412       .  A
C3092      C3093   1.414       .  A
C3093      C3095   1.402       .  A
C3093      C3094   1.408       .  A
C3094      H3101   1.084       .  S
C3095      C3096   1.398       .  A
C3095      H3102   1.084       .  S
C3096      C3097   1.407       .  A
C3096      H3103   1.083       .  S
C3097      C3098   1.409       .  A
C3098      H3104   1.084       .  S
C3105      C3106   1.407       .  A
C3105      C3110   1.407       .  A
C3106      C3107   1.403       .  A
C3106      H3115   1.083       .  S
C3107      C3108   1.404       .  A
C3107      H3116   1.083       .  S
C3108      C3114   1.412       .  A
C3108      C3109   1.414       .  A
C3109      C3111   1.400       .  A
C3109      C3110   1.406       .  A
C3110      H3117   1.084       .  S
C3111      C3112   1.396       .  A
C3111      H3118   1.084       .  S
C3112      C3113   1.407       .  A
C3112      H3119   1.083       .  S
C3113      C3114   1.408       .  A
C3114      H3120   1.084       .  S
C3121      C3122   1.404       .  A
C3121      C3126   1.408       .  A
C3122      C3123   1.401       .  A
C3122      H3131   1.083       .  S
C3123      C3124   1.404       .  A
C3123      H3132   1.083       .  S
C3124      C3130   1.408       .  A
C3124      C3125   1.414       .  A
C3125      C3127   1.403       .  A
C3125      C3126   1.407       .  A
C3126      H3133   1.084       .  S
C3127      C3128   1.400       .  A
C3127      H3134   1.083       .  S
C3128      C3129   1.405       .  A
C3128      H3135   1.083       .  S
C3129      C3130   1.409       .  A
C3130      H3136   1.084       .  S
C3137      C3138   1.405       .  A
C3137      C3142   1.411       .  A
C3138      C3139   1.391       .  A
C3138      H3147   1.083       .  S
C3139      C3140   1.398       .  A
C3139      H3148   1.084       .  S
C3140      C3146   1.400       .  A
C3140      C3141   1.414       .  A
C3141      C3143   1.407       .  A
C3141      C3142   1.413       .  A
C3142      H3149   1.084       .  S
C3143      C3144   1.406       .  A
C3143      H3150   1.083       .  S
C3144      C3145   1.407       .  A
C3144      H3151   1.083       .  S
C3145      C3146   1.404       .  A
C3146      H3152   1.084       .  S
C3153      C3154   1.406       .  A
C3153      C3158   1.408       .  A
C3154      C3155   1.404       .  A
C3154      H3163   1.083       .  S
C3155      C3156   1.405       .  A
C3155      H3164   1.083       .  S
C3156      C3162   1.415       .  A
C3156      C3157   1.414       .  A
C3157      C3159   1.400       .  A
C3157      C3158   1.407       .  A
C3158      H3165   1.084       .  S
C3159      C3160   1.396       .  A
C3159      H3166   1.084       .  S
C3160      C3161   1.407       .  A
C3160      H3167   1.083       .  S
C3161      C3162   1.411       .  A
C3162      H3168   1.084       .  S
C3169      C3170   1.408       .  A
C3169      C3174   1.410       .  A
C3170      C3171   1.397       .  A
C3170      H3179   1.083       .  S
C3171      C3172   1.401       .  A
C3171      H3180   1.084       .  S
C3172      C3178   1.408       .  A
C3172      C3173   1.414       .  A
C3173      C3175   1.405       .  A
C3173      C3174   1.414       .  A
C3174      H3181   1.084       .  S
C3175      C3176   1.404       .  A
C3175      H3182   1.083       .  S
C3176      C3177   1.407       .  A
C3176      H3183   1.083       .  S
C3177      C3178   1.408       .  A
C3178      H3184   1.084       .  S
C3185      C3186   1.407       .  A
C3185      C3190   1.405       .  A
C3186      C3187   1.408       .  A
C3186      H3195   1.083       .  S
C3187      C3188   1.408       .  A
C3187      H3196   1.083       .  S
C3188      C3194   1.416       .  A
C3188      C3189   1.413       .  A
C3189      C3191   1.397       .  A
C3189      C3190   1.399       .  A
C3190      H3197   1.084       .  S
C3191      C3192   1.390       .  A
C3191      H3198   1.084       .  S
C3192      C3193   1.407       .  A
C3192      H3199   1.083       .  S
C3193      C3194   1.412       .  A
C3194      H3200   1.084       .  S
C3201      C3202   1.407       .  A
C3201      C3206   1.413       .  A
C3202      C3203   1.393       .  A
C3202      H3211   1.083       .  S
C3203      C3204   1.398       .  A
C3203      H3212   1.084       .  S
C3204      C3210   1.403       .  A
C3204      C3205   1.414       .  A
C3205      C3207   1.407       .  A
C3205      C3206   1.416       .  A
C3206      H3213   1.084       .  S
C3207      C3208   1.407       .  A
C3207      H3214   1.083       .  S
C3208      C3209   1.407       .  A
C3208      H3215   1.083       .  S
C3209      C3210   1.406       .  A
C3210      H3216   1.084       .  S
C3217      C3218   1.407       .  A
C3217      C3222   1.404       .  A
C3218      C3219   1.409       .  A
C3218      H3227   1.083       .  S
C3219      C3220   1.409       .  A
C3219      H3228   1.083       .  S
C3220      C3226   1.417       .  A
C3220      C3221   1.414       .  A
C3221      C3223   1.396       .  A
C3221      C3222   1.399       .  A
C3222      H3229   1.084       .  S
C3223      C3224   1.389       .  A
C3223      H3230   1.084       .  S
C3224      C3225   1.406       .  A
C3224      H3231   1.083       .  S
C3225      C3226   1.413       .  A
C3226      H3232   1.084       .  S
C3233      C3234   1.406       .  A
C3233      C3238   1.409       .  A
C3234      C3235   1.392       .  A
C3234      H3243   1.084       .  S
C3235      C3236   1.398       .  A
C3235      H3244   1.084       .  S
C3236      C3242   1.401       .  A
C3236      C3237   1.415       .  A
C3237      C3239   1.406       .  A
C3237      C3238   1.414       .  A
C3238      H3245   1.084       .  S
C3239      C3240   1.405       .  A
C3239      H3246   1.083       .  S
C3240      C3241   1.406       .  A
C3240      H3247   1.083       .  S
C3241      C3242   1.405       .  A
C3242      H3248   1.084       .  S
C3249      C3250   1.405       .  A
C3249      C3254   1.411       .  A
C3250      C3251   1.387       .  A
C3250      H3259   1.083       .  S
C3251      C3252   1.396       .  A
C3251      H3260   1.084       .  S
C3252      C3258   1.396       .  A
C3252      C3253   1.414       .  A
C3253      C3255   1.408       .  A
C3253      C3254   1.415       .  A
C3254      H3261   1.084       .  S
C3255      C3256   1.408       .  A
C3255      H3262   1.083       .  S
C3256      C3257   1.407       .  A
C3256      H3263   1.083       .  S
C3257      C3258   1.403       .  A
C3258      H3264   1.085       .  S
C3265      C3266   1.405       .  A
C3265      C3270   1.411       .  A
C3266      C3267   1.393       .  A
C3266      H3275   1.083       .  S
C3267      C3268   1.399       .  A
C3267      H3276   1.084       .  S
C3268      C3274   1.401       .  A
C3268      C3269   1.413       .  A
C3269      C3271   1.407       .  A
C3269      C3270   1.413       .  A
C3270      H3277   1.084       .  S
C3271      C3272   1.406       .  A
C3271      H3278   1.083       .  S
C3272      C3273   1.407       .  A
C3272      H3279   1.083       .  S
C3273      C3274   1.405       .  A
C3274      H3280   1.084       .  S
C3281      C3282   1.407       .  A
C3281      C3286   1.406       .  A
C3282      C3283   1.405       .  A
C3282      H3291   1.083       .  S
C3283      C3284   1.406       .  A
C3283      H3292   1.083       .  S
C3284      C3290   1.414       .  A
C3284      C3285   1.414       .  A
C3285      C3287   1.399       .  A
C3285      C3286   1.403       .  A
C3286      H3293   1.084       .  S
C3287      C3288   1.394       .  A
C3287      H3294   1.084       .  S
C3288      C3289   1.407       .  A
C3288      H3295   1.083       .  S
C3289      C3290   1.412       .  A
C3290      H3296   1.084       .  S
C3297      C3298   1.405       .  A
C3297      C3302   1.408       .  A
C3298      C3299   1.398       .  A
C3298      H3307   1.083       .  S
C3299      C3300   1.402       .  A
C3299      H3308   1.084       .  S
C3300      C3306   1.404       .  A
C3300      C3301   1.413       .  A
C3301      C3303   1.404       .  A
C3301      C3302   1.406       .  A
C3302      H3309   1.084       .  S
C3303      C3304   1.399       .  A
C3303      H3310   1.083       .  S
C3304      C3305   1.404       .  A
C3304      H3311   1.083       .  S
C3305      C3306   1.407       .  A
C3306      H3312   1.084       .  S
C3313      C3314   1.408       .  A
C3313      C3318   1.411       .  A
C3314      C3315   1.397       .  A
C3314      H3323   1.083       .  S
C3315      C3316   1.400       .  A
C3315      H3324   1.084       .  S
C3316      C3322   1.408       .  A
C3316      C3317   1.414       .  A
C3317      C3319   1.405       .  A
C3317      C3318   1.414       .  A
C3318      H3325   1.084       .  S
C3319      C3320   1.403       .  A
C3319      H3326   1.083       .  S
C3320      C3321   1.406       .  A
C3320      H3327   1.083       .  S
C3321      C3322   1.407       .  A
C3322      H3328   1.084       .  S
C3329      C3330   1.407       .  A
C3329      C3334   1.411       .  A
C3330      C3331   1.391       .  A
C3330      H3339   1.083       .  S
C3331      C3332   1.397       .  A
C3331      H3340   1.084       .  S
C3332      C3338   1.401       .  A
C3332      C3333   1.414       .  A
C3333      C3335   1.407       .  A
C3333      C3334   1.415       .  A
C3334      H3341   1.084       .  S
C3335      C3336   1.406       .  A
C3335      H3342   1.083       .  S
C3336      C3337   1.407       .  A
C3336      H3343   1.083       .  S
C3337      C3338   1.405       .  A
C3338      H3344   1.084       .  S
C3345      C3346   1.407       .  A
C3345      C3350   1.405       .  A
C3346      C3347   1.405       .  A
C3346      H3355   1.083       .  S
C3347      C3348   1.406       .  A
C3347      H3356   1.083       .  S
C3348      C3354   1.415       .  A
C3348      C3349   1.415       .  A
C3349      C3351   1.399       .  A
C3349      C3350   1.403       .  A
C3350      H3357   1.084       .  S
C3351      C3352   1.393       .  A
C3351      H3358   1.084       .  S
C3352      C3353   1.406       .  A
C3352      H3359   1.083       .  S
C3353      C3354   1.410       .  A
C3354      H3360   1.084       .  S
C3361      C3362   1.406       .  A
C3361      C3366   1.408       .  A
C3362      C3363   1.395       .  A
C3362      H3371   1.083       .  S
C3363      C3364   1.400       .  A
C3363      H3372   1.084       .  S
C3364      C3370   1.403       .  A
C3364      C3365   1.414       .  A
C3365      C3367   1.404       .  A
C3365      C3366   1.409       .  A
C3366      H3373   1.084       .  S
C3367      C3368   1.401       .  A
C3367      H3374   1.083       .  S
C3368      C3369   1.406       .  A
C3368      H3375   1.083       .  S
C3369      C3370   1.406       .  A
C3370      H3376   1.084       .  S
C3377      C3378   1.407       .  A
C3377      C3382   1.407       .  A
C3378      C3379   1.405       .  A
C3378      H3387   1.083       .  S
C3379      C3380   1.406       .  A
C3379      H3388   1.083       .  S
C3380      C3386   1.415       .  A
C3380      C3381   1.414       .  A
C3381      C3383   1.400       .  A
C3381      C3382   1.406       .  A
C3382      H3389   1.084       .  S
C3383      C3384   1.395       .  A
C3383      H3390   1.084       .  S
C3384      C3385   1.407       .  A
C3384      H3391   1.083       .  S
C3385      C3386   1.411       .  A
C3386      H3392   1.084       .  S
C3393      C3394   1.406       .  A
C3393      C3398   1.405       .  A
C3394      C3395   1.405       .  A
C3394      H3403   1.083       .  S
C3395      C3396   1.407       .  A
C3395      H3404   1.084       .  S
C3396      C3402   1.411       .  A
C3396      C3397   1.413       .  A
C3397      C3399   1.401       .  A
C3397      C3398   1.403       .  A
C3398      H3405   1.084       .  S
C3399      C3400   1.396       .  A
C3399      H3406   1.084       .  S
C3400      C3401   1.404       .  A
C3400      H3407   1.083       .  S
C3401      C3402   1.412       .  A
C3402      H3408   1.084       .  S
C3409      C3410   1.406       .  A
C3409      C3414   1.409       .  A
C3410      C3411   1.397       .  A
C3410      H3419   1.083       .  S
C3411      C3412   1.401       .  A
C3411      H3420   1.084       .  S
C3412      C3418   1.405       .  A
C3412      C3413   1.414       .  A
C3413      C3415   1.404       .  A
C3413      C3414   1.408       .  A
C3414      H3421   1.084       .  S
C3415      C3416   1.400       .  A
C3415      H3422   1.083       .  S
C3416      C3417   1.405       .  A
C3416      H3423   1.083       .  S
C3417      C3418   1.407       .  A
C3418      H3424   1.084       .  S
C3425      C3426   1.406       .  A
C3425      C3430   1.407       .  A
C3426      C3427   1.403       .  A
C3426      H3435   1.083       .  S
C3427      C3428   1.405       .  A
C3427      H3436   1.083       .  S
C3428      C3434   1.412       .  A
C3428      C3429   1.414       .  A
C3429      C3431   1.400       .  A
C3429      C3430   1.405       .  A
C3430      H3437   1.084       .  S
C3431      C3432   1.395       .  A
C3431      H3438   1.084       .  S
C3432      C3433   1.406       .  A
C3432      H3439   1.083       .  S
C3433      C3434   1.410       .  A
C3434      H3440   1.084       .  S
C3441      C3442   1.406       .  A
C3441      C3446   1.407       .  A
C3442      C3443   1.393       .  A
C3442      H3451   1.083       .  S
C3443      C3444   1.399       .  A
C3443      H3452   1.084       .  S
C3444      C3450   1.402       .  A
C3444      C3445   1.415       .  A
C3445      C3447   1.404       .  A
C3445      C3446   1.410       .  A
C3446      H3453   1.084       .  S
C3447      C3448   1.402       .  A
C3447      H3454   1.083       .  S
C3448      C3449   1.407       .  A
C3448      H3455   1.083       .  S
C3449      C3450   1.405       .  A
C3450      H3456   1.084       .  S
C3457      C3458   1.407       .  A
C3457      C3462   1.407       .  A
C3458      C3459   1.407       .  A
C3458      H3467   1.083       .  S
C3459      C3460   1.407       .  A
C3459      H3468   1.083       .  S
C3460      C3466   1.415       .  A
C3460      C3461   1.413       .  A
C3461      C3463   1.399       .  A
C3461      C3462   1.404       .  A
C3462      H3469   1.084       .  S
C3463      C3464   1.394       .  A
C3463      H3470   1.084       .  S
C3464      C3465   1.407       .  A
C3464      H3471   1.083       .  S
C3465      C3466   1.412       .  A
C3466      H3472   1.084       .  S
C3473      C3474   1.407       .  A
C3473      C3478   1.410       .  A
C3474      C3475   1.395       .  A
C3474      H3483   1.083       .  S
C3475      C3476   1.400       .  A
C3475      H3484   1.084       .  S
C3476      C3482   1.405       .  A
C3476      C3477   1.414       .  A
C3477      C3479   1.405       .  A
C3477      C3478   1.413       .  A
C3478      H3485   1.084       .  S
C3479      C3480   1.404       .  A
C3479      H3486   1.083       .  S
C3480      C3481   1.406       .  A
C3480      H3487   1.083       .  S
C3481      C3482   1.407       .  A
C3482      H3488   1.084       .  S
C3489      C3490   1.404       .  A
C3489      C3494   1.408       .  A
C3490      C3491   1.402       .  A
C3490      H3499   1.083       .  S
C3491      C3492   1.405       .  A
C3491      H3500   1.083       .  S
C3492      C3498   1.409       .  A
C3492      C3493   1.413       .  A
C3493      C3495   1.403       .  A
C3493      C3494   1.407       .  A
C3494      H3501   1.084       .  S
C3495      C3496   1.400       .  A
C3495      H3502   1.084       .  S
C3496      C3497   1.406       .  A
C3496      H3503   1.083       .  S
C3497      C3498   1.410       .  A
C3498      H3504   1.084       .  S
C3505      C3506   1.407       .  A
C3505      C3510   1.411       .  A
C3506      C3507   1.394       .  A
C3506      H3515   1.083       .  S
C3507      C3508   1.399       .  A
C3507      H3516   1.084       .  S
C3508      C3514   1.405       .  A
C3508      C3509   1.414       .  A
C3509      C3511   1.405       .  A
C3509      C3510   1.414       .  A
C3510      H3517   1.084       .  S
C3511      C3512   1.404       .  A
C3511      H3518   1.083       .  S
C3512      C3513   1.407       .  A
C3512      H3519   1.083       .  S
C3513      C3514   1.406       .  A
C3514      H3520   1.084       .  S
C3521      C3522   1.406       .  A
C3521      C3526   1.409       .  A
C3522      C3523   1.398       .  A
C3522      H3531   1.083       .  S
C3523      C3524   1.402       .  A
C3523      H3532   1.084       .  S
C3524      C3530   1.405       .  A
C3524      C3525   1.413       .  A
C3525      C3527   1.405       .  A
C3525      C3526   1.408       .  A
C3526      H3533   1.084       .  S
C3527      C3528   1.401       .  A
C3527      H3534   1.084       .  S
C3528      C3529   1.405       .  A
C3528      H3535   1.083       .  S
C3529      C3530   1.406       .  A
C3530      H3536   1.084       .  S
C3537      C3538   1.405       .  A
C3537      C3542   1.407       .  A
C3538      C3539   1.402       .  A
C3538      H3547   1.083       .  S
C3539      C3540   1.405       .  A
C3539      H3548   1.083       .  S
C3540      C3546   1.408       .  A
C3540      C3541   1.413       .  A
C3541      C3543   1.401       .  A
C3541      C3542   1.404       .  A
C3542      H3549   1.084       .  S
C3543      C3544   1.396       .  A
C3543      H3550   1.084       .  S
C3544      C3545   1.405       .  A
C3544      H3551   1.083       .  S
C3545      C3546   1.409       .  A
C3546      H3552   1.084       .  S
C3553      C3554   1.407       .  A
C3553      C3558   1.410       .  A
C3554      C3555   1.394       .  A
C3554      H3563   1.083       .  S
C3555      C3556   1.399       .  A
C3555      H3564   1.084       .  S
C3556      C3562   1.405       .  A
C3556      C3557   1.414       .  A
C3557      C3559   1.405       .  A
C3557      C3558   1.414       .  A
C3558      H3565   1.084       .  S
C3559      C3560   1.404       .  A
C3559      H3566   1.083       .  S
C3560      C3561   1.406       .  A
C3560      H3567   1.083       .  S
C3561      C3562   1.406       .  A
C3562      H3568   1.084       .  S
C3569      C3570   1.407       .  A
C3569      C3574   1.413       .  A
C3570      C3571   1.395       .  A
C3570      H3579   1.083       .  S
C3571      C3572   1.400       .  A
C3571      H3580   1.084       .  S
C3572      C3578   1.406       .  A
C3572      C3573   1.414       .  A
C3573      C3575   1.407       .  A
C3573      C3574   1.417       .  A
C3574      H3581   1.084       .  S
C3575      C3576   1.408       .  A
C3575      H3582   1.083       .  S
C3576      C3577   1.408       .  A
C3576      H3583   1.083       .  S
C3577      C3578   1.408       .  A
C3578      H3584   1.084       .  S
C3585      C3586   1.406       .  A
C3585      C3590   1.411       .  A
C3586      C3587   1.393       .  A
C3586      H3595   1.083       .  S
C3587      C3588   1.399       .  A
C3587      H3596   1.084       .  S
C3588      C3594   1.403       .  A
C3588      C3589   1.414       .  A
C3589      C3591   1.406       .  A
C3589      C3590   1.413       .  A
C3590      H3597   1.084       .  S
C3591      C3592   1.406       .  A
C3591      H3598   1.083       .  S
C3592      C3593   1.407       .  A
C3592      H3599   1.083       .  S
C3593      C3594   1.406       .  A
C3594      H3600   1.084       .  S
C3601      C3602   1.406       .  A
C3601      C3606   1.409       .  A
C3602      C3603   1.403       .  A
C3602      H3611   1.083       .  S
C3603      C3604   1.405       .  A
C3603      H3612   1.083       .  S
C3604      C3610   1.413       .  A
C3604      C3605   1.414       .  A
C3605      C3607   1.401       .  A
C3605      C3606   1.409       .  A
C3606      H3613   1.084       .  S
C3607      C3608   1.398       .  A
C3607      H3614   1.084       .  S
C3608      C3609   1.407       .  A
C3608      H3615   1.083       .  S
C3609      C3610   1.410       .  A
C3610      H3616   1.084       .  S
C3617      C3618   1.406       .  A
C3617      C3622   1.409       .  A
C3618      C3619   1.399       .  A
C3618      H3627   1.083       .  S
C3619      C3620   1.403       .  A
C3619      H3628   1.084       .  S
C3620      C3626   1.406       .  A
C3620      C3621   1.413       .  A
C3621      C3623   1.404       .  A
C3621      C3622   1.407       .  A
C3622      H3629   1.084       .  S
C3623      C3624   1.400       .  A
C3623      H3630   1.083       .  S
C3624      C3625   1.405       .  A
C3624      H3631   1.083       .  S
C3625      C3626   1.409       .  A
C3626      H3632   1.084       .  S
C3633      C3634   1.407       .  A
C3633      C3638   1.412       .  A
C3634      C3635   1.396       .  A
C3634      H3643   1.083       .  S
C3635      C3636   1.400       .  A
C3635      H3644   1.084       .  S
C3636      C3642   1.406       .  A
C3636      C3637   1.414       .  A
C3637      C3639   1.406       .  A
C3637      C3638   1.414       .  A
C3638      H3645   1.084       .  S
C3639      C3640   1.404       .  A
C3639      H3646   1.083       .  S
C3640      C3641   1.407       .  A
C3640      H3647   1.083       .  S
C3641      C3642   1.407       .  A
C3642      H3648   1.084       .  S
C3649      C3650   1.408       .  A
C3649      C3654   1.411       .  A
C3650      C3651   1.398       .  A
C3650      H3659   1.083       .  S
C3651      C3652   1.401       .  A
C3651      H3660   1.084       .  S
C3652      C3658   1.408       .  A
C3652      C3653   1.414       .  A
C3653      C3655   1.405       .  A
C3653      C3654   1.414       .  A
C3654      H3661   1.084       .  S
C3655      C3656   1.404       .  A
C3655      H3662   1.083       .  S
C3656      C3657   1.406       .  A
C3656      H3663   1.083       .  S
C3657      C3658   1.409       .  A
C3658      H3664   1.084       .  S
C3665      C3666   1.404       .  A
C3665      C3670   1.408       .  A
C3666      C3667   1.402       .  A
C3666      H3675   1.083       .  S
C3667      C3668   1.405       .  A
C3667      H3676   1.083       .  S
C3668      C3674   1.411       .  A
C3668      C3669   1.414       .  A
C3669      C3671   1.403       .  A
C3669      C3670   1.409       .  A
C3670      H3677   1.084       .  S
C3671      C3672   1.400       .  A
C3671      H3678   1.083       .  S
C3672      C3673   1.405       .  A
C3672      H3679   1.083       .  S
C3673      C3674   1.411       .  A
C3674      H3680   1.084       .  S
C3681      C3682   1.406       .  A
C3681      C3686   1.409       .  A
C3682      C3683   1.403       .  A
C3682      H3691   1.083       .  S
C3683      C3684   1.404       .  A
C3683      H3692   1.083       .  S
C3684      C3690   1.412       .  A
C3684      C3685   1.414       .  A
C3685      C3687   1.402       .  A
C3685      C3686   1.407       .  A
C3686      H3693   1.084       .  S
C3687      C3688   1.398       .  A
C3687      H3694   1.084       .  S
C3688      C3689   1.406       .  A
C3688      H3695   1.083       .  S
C3689      C3690   1.409       .  A
C3690      H3696   1.084       .  S
C3697      C3698   1.406       .  A
C3697      C3702   1.412       .  A
C3698      C3699   1.394       .  A
C3698      H3707   1.083       .  S
C3699      C3700   1.400       .  A
C3699      H3708   1.084       .  S
C3700      C3706   1.404       .  A
C3700      C3701   1.413       .  A
C3701      C3703   1.407       .  A
C3701      C3702   1.416       .  A
C3702      H3709   1.084       .  S
C3703      C3704   1.408       .  A
C3703      H3710   1.083       .  S
C3704      C3705   1.407       .  A
C3704      H3711   1.083       .  S
C3705      C3706   1.407       .  A
C3706      H3712   1.084       .  S
C3713      C3714   1.406       .  A
C3713      C3718   1.407       .  A
C3714      C3715   1.399       .  A
C3714      H3723   1.083       .  S
C3715      C3716   1.402       .  A
C3715      H3724   1.084       .  S
C3716      C3722   1.408       .  A
C3716      C3717   1.415       .  A
C3717      C3719   1.402       .  A
C3717      C3718   1.408       .  A
C3718      H3725   1.084       .  S
C3719      C3720   1.398       .  A
C3719      H3726   1.084       .  S
C3720      C3721   1.408       .  A
C3720      H3727   1.083       .  S
C3721      C3722   1.407       .  A
C3722      H3728   1.084       .  S
C3729      C3730   1.407       .  A
C3729      C3734   1.405       .  A
C3730      C3731   1.403       .  A
C3730      H3739   1.083       .  S
C3731      C3732   1.405       .  A
C3731      H3740   1.083       .  S
C3732      C3738   1.412       .  A
C3732      C3733   1.415       .  A
C3733      C3735   1.400       .  A
C3733      C3734   1.404       .  A
C3734      H3741   1.084       .  S
C3735      C3736   1.394       .  A
C3735      H3742   1.084       .  S
C3736      C3737   1.405       .  A
C3736      H3743   1.083       .  S
C3737      C3738   1.408       .  A
C3738      H3744   1.084       .  S
C3745      C3746   1.406       .  A
C3745      C3750   1.412       .  A
C3746      C3747   1.394       .  A
C3746      H3755   1.083       .  S
C3747      C3748   1.399       .  A
C3747      H3756   1.084       .  S
C3748      C3754   1.404       .  A
C3748      C3749   1.414       .  A
C3749      C3751   1.407       .  A
C3749      C3750   1.416       .  A
C3750      H3757   1.084       .  S
C3751      C3752   1.407       .  A
C3751      H3758   1.083       .  S
C3752      C3753   1.408       .  A
C3752      H3759   1.083       .  S
C3753      C3754   1.407       .  A
C3754      H3760   1.084       .  S
C3761      C3762   1.405       .  A
C3761      C3766   1.406       .  A
C3762      C3763   1.402       .  A
C3762      H3771   1.083       .  S
C3763      C3764   1.404       .  A
C3763      H3772   1.083       .  S
C3764      C3770   1.410       .  A
C3764      C3765   1.414       .  A
C3765      C3767   1.400       .  A
C3765      C3766   1.404       .  A
C3766      H3773   1.084       .  S
C3767      C3768   1.396       .  A
C3767      H3774   1.084       .  S
C3768      C3769   1.407       .  A
C3768      H3775   1.083       .  S
C3769      C3770   1.408       .  A
C3770      H3776   1.084       .  S
C3777      C3778   1.407       .  A
C3777      C3782   1.409       .  A
C3778      C3779   1.394       .  A
C3778      H3787   1.083       .  S
C3779      C3780   1.399       .  A
C3779      H3788   1.084       .  S
C3780      C3786   1.402       .  A
C3780      C3781   1.414       .  A
C3781      C3783   1.405       .  A
C3781      C3782   1.411       .  A
C3782      H3789   1.084       .  S
C3783      C3784   1.403       .  A
C3783      H3790   1.083       .  S
C3784      C3785   1.406       .  A
C3784      H3791   1.083       .  S
C3785      C3786   1.405       .  A
C3786      H3792   1.084       .  S
C3793      C3794   1.406       .  A
C3793      C3798   1.408       .  A
C3794      C3795   1.399       .  A
C3794      H3803   1.083       .  S
C3795      C3796   1.403       .  A
C3795      H3804   1.084       .  S
C3796      C3802   1.409       .  A
C3796      C3797   1.414       .  A
C3797      C3799   1.404       .  A
C3797      C3798   1.411       .  A
C3798      H3805   1.084       .  S
C3799      C3800   1.402       .  A
C3799      H3806   1.083       .  S
C3800      C3801   1.406       .  A
C3800      H3807   1.083       .  S
C3801      C3802   1.409       .  A
C3802      H3808   1.084       .  S
C3809      C3810   1.407       .  A
C3809      C3814   1.411       .  A
C3810      C3811   1.392       .  A
C3810      H3819   1.083       .  S
C3811      C3812   1.398       .  A
C3811      H3820   1.084       .  S
C3812      C3818   1.402       .  A
C3812      C3813   1.414       .  A
C3813      C3815   1.407       .  A
C3813      C3814   1.415       .  A
C3814      H3821   1.084       .  S
C3815      C3816   1.406       .  A
C3815      H3822   1.083       .  S
C3816      C3817   1.406       .  A
C3816      H3823   1.083       .  S
C3817      C3818   1.407       .  A
C3818      H3824   1.084       .  S
C3825      C3826   1.408       .  A
C3825      C3830   1.407       .  A
C3826      C3827   1.408       .  A
C3826      H3835   1.083       .  S
C3827      C3828   1.407       .  A
C3827      H3836   1.083       .  S
C3828      C3834   1.417       .  A
C3828      C3829   1.413       .  A
C3829      C3831   1.399       .  A
C3829      C3830   1.405       .  A
C3830      H3837   1.084       .  S
C3831      C3832   1.394       .  A
C3831      H3838   1.084       .  S
C3832      C3833   1.407       .  A
C3832      H3839   1.083       .  S
C3833      C3834   1.413       .  A
C3834      H3840   1.084       .  S
C3841      C3842   1.407       .  A
C3841      C3846   1.404       .  A
C3842      C3843   1.405       .  A
C3842      H3851   1.083       .  S
C3843      C3844   1.406       .  A
C3843      H3852   1.083       .  S
C3844      C3850   1.415       .  A
C3844      C3845   1.415       .  A
C3845      C3847   1.397       .  A
C3845      C3846   1.403       .  A
C3846      H3853   1.084       .  S
C3847      C3848   1.392       .  A
C3847      H3854   1.084       .  S
C3848      C3849   1.407       .  A
C3848      H3855   1.083       .  S
C3849      C3850   1.411       .  A
C3850      H3856   1.084       .  S
C3857      C3858   1.406       .  A
C3857      C3862   1.411       .  A
C3858      C3859   1.389       .  A
C3858      H3867   1.083       .  S
C3859      C3860   1.396       .  A
C3859      H3868   1.084       .  S
C3860      C3866   1.399       .  A
C3860      C3861   1.414       .  A
C3861      C3863   1.407       .  A
C3861      C3862   1.415       .  A
C3862      H3869   1.084       .  S
C3863      C3864   1.407       .  A
C3863      H3870   1.083       .  S
C3864      C3865   1.406       .  A
C3864      H3871   1.083       .  S
C3865      C3866   1.403       .  A
C3866      H3872   1.085       .  S
C3873      C3874   1.407       .  A
C3873      C3878   1.404       .  A
C3874      C3875   1.406       .  A
C3874      H3883   1.083       .  S
C3875      C3876   1.407       .  A
C3875      H3884   1.083       .  S
C3876      C3882   1.414       .  A
C3876      C3877   1.414       .  A
C3877      C3879   1.399       .  A
C3877      C3878   1.401       .  A
C3878      H3885   1.084       .  S
C3879      C3880   1.392       .  A
C3879      H3886   1.084       .  S
C3880      C3881   1.404       .  A
C3880      H3887   1.083       .  S
C3881      C3882   1.412       .  A
C3882      H3888   1.084       .  S
C3889      C3890   1.405       .  A
C3889      C3894   1.410       .  A
C3890      C3891   1.394       .  A
C3890      H3899   1.083       .  S
C3891      C3892   1.400       .  A
C3891      H3900   1.084       .  S
C3892      C3898   1.402       .  A
C3892      C3893   1.414       .  A
C3893      C3895   1.406       .  A
C3893      C3894   1.412       .  A
C3894      H3901   1.084       .  S
C3895      C3896   1.404       .  A
C3895      H3902   1.083       .  S
C3896      C3897   1.406       .  A
C3896      H3903   1.083       .  S
C3897      C3898   1.406       .  A
C3898      H3904   1.084       .  S
C3905      C3906   1.407       .  A
C3905      C3910   1.407       .  A
C3906      C3907   1.407       .  A
C3906      H3915   1.083       .  S
C3907      C3908   1.407       .  A
C3907      H3916   1.083       .  S
C3908      C3914   1.415       .  A
C3908      C3909   1.414       .  A
C3909      C3911   1.398       .  A
C3909      C3910   1.402       .  A
C3910      H3917   1.084       .  S
C3911      C3912   1.392       .  A
C3911      H3918   1.084       .  S
C3912      C3913   1.406       .  A
C3912      H3919   1.083       .  S
C3913      C3914   1.411       .  A
C3914      H3920   1.084       .  S
C3921      C3922   1.406       .  A
C3921      C3926   1.405       .  A
C3922      C3923   1.406       .  A
C3922      H3931   1.083       .  S
C3923      C3924   1.407       .  A
C3923      H3932   1.084       .  S
C3924      C3930   1.412       .  A
C3924      C3925   1.414       .  A
C3925      C3927   1.399       .  A
C3925      C3926   1.400       .  A
C3926      H3933   1.084       .  S
C3927      C3928   1.392       .  A
C3927      H3934   1.084       .  S
C3928      C3929   1.404       .  A
C3928      H3935   1.084       .  S
C3929      C3930   1.409       .  A
C3930      H3936   1.084       .  S
C3937      C3938   1.407       .  A
C3937      C3942   1.404       .  A
C3938      C3939   1.405       .  A
C3938      H3947   1.083       .  S
C3939      C3940   1.406       .  A
C3939      H3948   1.083       .  S
C3940      C3946   1.414       .  A
C3940      C3941   1.414       .  A
C3941      C3943   1.398       .  A
C3941      C3942   1.402       .  A
C3942      H3949   1.084       .  S
C3943      C3944   1.392       .  A
C3943      H3950   1.084       .  S
C3944      C3945   1.407       .  A
C3944      H3951   1.083       .  S
C3945      C3946   1.410       .  A
C3946      H3952   1.084       .  S
C3953      C3954   1.405       .  A
C3953      C3958   1.409       .  A
C3954      C3955   1.395       .  A
C3954      H3963   1.083       .  S
C3955      C3956   1.400       .  A
C3955      H3964   1.084       .  S
C3956      C3962   1.404       .  A
C3956      C3957   1.414       .  A
C3957      C3959   1.405       .  A
C3957      C3958   1.412       .  A
C3958      H3965   1.084       .  S
C3959      C3960   1.404       .  A
C3959      H3966   1.083       .  S
C3960      C3961   1.407       .  A
C3960      H3967   1.083       .  S
C3961      C3962   1.406       .  A
C3962      H3968   1.084       .  S
C3969      C3970   1.407       .  A
C3969      C3974   1.406       .  A
C3970      C3971   1.406       .  A
C3970      H3979   1.083       .  S
C3971      C3972   1.407       .  A
C3971      H3980   1.083       .  S
C3972      C3978   1.417       .  A
C3972      C3973   1.414       .  A
C3973      C3975   1.399       .  A
C3973      C3974   1.407       .  A
C3974      H3981   1.084       .  S
C3975      C3976   1.395       .  A
C3975      H3982   1.084       .  S
C3976      C3977   1.408       .  A
C3976      H3983   1.083       .  S
C3977      C3978   1.413       .  A
C3978      H3984   1.084       .  S
C3985      C3986   1.403       .  A
C3985      C3990   1.408       .  A
C3986      C3987   1.394       .  A
C3986      H3995   1.083       .  S
C3987      C3988   1.400       .  A
C3987      H3996   1.084       .  S
C3988      C3994   1.401       .  A
C3988      C3989   1.414       .  A
C3989      C3991   1.405       .  A
C3989      C3990   1.409       .  A
C3990      H3997   1.084       .  S
C3991      C3992   1.403       .  A
C3991      H3998   1.084       .  S
C3992      C3993   1.406       .  A
C3992      H3999   1.083       .  S
C3993      C3994   1.405       .  A
C3994      H4000   1.084       .  S
C4001      C4002   1.404       .  A
C4001      C4006   1.409       .  A
C4002      C4003   1.391       .  A
C4002      H4011   1.083       .  S
C4003      C4004   1.398       .  A
C4003      H4012   1.084       .  S
C4004      C4010   1.398       .  A
C4004      C4005   1.414       .  A
C4005      C4007   1.406       .  A
C4005      C4006   1.411       .  A
C4006      H4013   1.084       .  S
C4007      C4008   1.404       .  A
C4007      H4014   1.083       .  S
C4008      C4009   1.405       .  A
C4008      H4015   1.083       .  S
C4009      C4010   1.403       .  A
C4010      H4016   1.085       .  S
C4017      C4018   1.406       .  A
C4017      C4022   1.408       .  A
C4018      C4019   1.402       .  A
C4018      H4027   1.083       .  S
C4019      C4020   1.404       .  A
C4019      H4028   1.083       .  S
C4020      C4026   1.411       .  A
C4020      C4021   1.414       .  A
C4021      C4023   1.401       .  A
C4021      C4022   1.406       .  A
C4022      H4029   1.084       .  S
C4023      C4024   1.396       .  A
C4023      H4030   1.084       .  S
C4024      C4025   1.407       .  A
C4024      H4031   1.083       .  S
C4025      C4026   1.408       .  A
C4026      H4032   1.084       .  S
C4033      C4034   1.406       .  A
C4033      C4038   1.407       .  A
C4034      C4035   1.403       .  A
C4034      H4043   1.083       .  S
C4035      C4036   1.405       .  A
C4035      H4044   1.084       .  S
C4036      C4042   1.410       .  A
C4036      C4037   1.414       .  A
C4037      C4039   1.401       .  A
C4037      C4038   1.405       .  A
C4038      H4045   1.084       .  S
C4039      C4040   1.396       .  A
C4039      H4046   1.084       .  S
C4040      C4041   1.406       .  A
C4040      H4047   1.083       .  S
C4041      C4042   1.409       .  A
C4042      H4048   1.084       .  S
C4049      C4050   1.406       .  A
C4049      C4054   1.406       .  A
C4050      C4051   1.405       .  A
C4050      H4059   1.083       .  S
C4051      C4052   1.406       .  A
C4051      H4060   1.083       .  S
C4052      C4058   1.413       .  A
C4052      C4053   1.414       .  A
C4053      C4055   1.400       .  A
C4053      C4054   1.402       .  A
C4054      H4061   1.085       .  S
C4055      C4056   1.393       .  A
C4055      H4062   1.084       .  S
C4056      C4057   1.404       .  A
C4056      H4063   1.084       .  S
C4057      C4058   1.408       .  A
C4058      H4064   1.084       .  S
C4065      C4066   1.407       .  A
C4065      C4070   1.405       .  A
C4066      C4067   1.405       .  A
C4066      H4075   1.083       .  S
C4067      C4068   1.406       .  A
C4067      H4076   1.083       .  S
C4068      C4074   1.414       .  A
C4068      C4069   1.415       .  A
C4069      C4071   1.399       .  A
C4069      C4070   1.403       .  A
C4070      H4077   1.084       .  S
C4071      C4072   1.393       .  A
C4071      H4078   1.084       .  S
C4072      C4073   1.406       .  A
C4072      H4079   1.083       .  S
C4073      C4074   1.410       .  A
C4074      H4080   1.084       .  S
C4081      C4082   1.405       .  A
C4081      C4086   1.410       .  A
C4082      C4083   1.398       .  A
C4082      H4091   1.083       .  S
C4083      C4084   1.402       .  A
C4083      H4092   1.084       .  S
C4084      C4090   1.407       .  A
C4084      C4085   1.413       .  A
C4085      C4087   1.405       .  A
C4085      C4086   1.410       .  A
C4086      H4093   1.084       .  S
C4087      C4088   1.402       .  A
C4087      H4094   1.083       .  S
C4088      C4089   1.406       .  A
C4088      H4095   1.083       .  S
C4089      C4090   1.409       .  A
C4090      H4096   1.084       .  S
C4097      C4098   1.406       .  A
C4097      C4102   1.409       .  A
C4098      C4099   1.397       .  A
C4098      H4107   1.083       .  S
C4099      C4100   1.402       .  A
C4099      H4108   1.084       .  S
C4100      C4106   1.405       .  A
C4100      C4101   1.413       .  A
C4101      C4103   1.406       .  A
C4101      C4102   1.411       .  A
C4102      H4109   1.084       .  S
C4103      C4104   1.404       .  A
C4103      H4110   1.083       .  S
C4104      C4105   1.404       .  A
C4104      H4111   1.083       .  S
C4105      C4106   1.409       .  A
C4106      H4112   1.085       .  S
C4113      C4114   1.404       .  A
C4113      C4118   1.406       .  A
C4114      C4115   1.400       .  A
C4114      H4123   1.083       .  S
C4115      C4116   1.404       .  A
C4115      H4124   1.083       .  S
C4116      C4122   1.407       .  A
C4116      C4117   1.413       .  A
C4117      C4119   1.402       .  A
C4117      C4118   1.404       .  A
C4118      H4125   1.085       .  S
C4119      C4120   1.397       .  A
C4119      H4126   1.084       .  S
C4120      C4121   1.406       .  A
C4120      H4127   1.083       .  S
C4121      C4122   1.409       .  A
C4122      H4128   1.084       .  S
C4129      C4130   1.407       .  A
C4129      C4134   1.407       .  A
C4130      C4131   1.404       .  A
C4130      H4139   1.083       .  S
C4131      C4132   1.406       .  A
C4131      H4140   1.083       .  S
C4132      C4138   1.412       .  A
C4132      C4133   1.414       .  A
C4133      C4135   1.401       .  A
C4133      C4134   1.404       .  A
C4134      H4141   1.084       .  S
C4135      C4136   1.395       .  A
C4135      H4142   1.084       .  S
C4136      C4137   1.405       .  A
C4136      H4143   1.083       .  S
C4137      C4138   1.410       .  A
C4138      H4144   1.084       .  S
C4145      C4146   1.407       .  A
C4145      C4150   1.410       .  A
C4146      C4147   1.397       .  A
C4146      H4155   1.083       .  S
C4147      C4148   1.401       .  A
C4147      H4156   1.084       .  S
C4148      C4154   1.406       .  A
C4148      C4149   1.414       .  A
C4149      C4151   1.405       .  A
C4149      C4150   1.413       .  A
C4150      H4157   1.084       .  S
C4151      C4152   1.404       .  A
C4151      H4158   1.083       .  S
C4152      C4153   1.406       .  A
C4152      H4159   1.083       .  S
C4153      C4154   1.408       .  A
C4154      H4160   1.084       .  S
C4161      C4162   1.407       .  A
C4161      C4166   1.409       .  A
C4162      C4163   1.397       .  A
C4162      H4171   1.083       .  S
C4163      C4164   1.401       .  A
C4163      H4172   1.084       .  S
C4164      C4170   1.406       .  A
C4164      C4165   1.414       .  A
C4165      C4167   1.404       .  A
C4165      C4166   1.411       .  A
C4166      H4173   1.084       .  S
C4167      C4168   1.402       .  A
C4167      H4174   1.083       .  S
C4168      C4169   1.406       .  A
C4168      H4175   1.083       .  S
C4169      C4170   1.407       .  A
C4170      H4176   1.084       .  S
C4177      C4178   1.406       .  A
C4177      C4182   1.407       .  A
C4178      C4179   1.405       .  A
C4178      H4187   1.083       .  S
C4179      C4180   1.406       .  A
C4179      H4188   1.083       .  S
C4180      C4186   1.414       .  A
C4180      C4181   1.414       .  A
C4181      C4183   1.399       .  A
C4181      C4182   1.405       .  A
C4182      H4189   1.084       .  S
C4183      C4184   1.395       .  A
C4183      H4190   1.084       .  S
C4184      C4185   1.407       .  A
C4184      H4191   1.083       .  S
C4185      C4186   1.410       .  A
C4186      H4192   1.084       .  S
C4193      C4194   1.405       .  A
C4193      C4198   1.409       .  A
C4194      C4195   1.393       .  A
C4194      H4203   1.084       .  S
C4195      C4196   1.399       .  A
C4195      H4204   1.084       .  S
C4196      C4202   1.401       .  A
C4196      C4197   1.414       .  A
C4197      C4199   1.407       .  A
C4197      C4198   1.413       .  A
C4198      H4205   1.084       .  S
C4199      C4200   1.406       .  A
C4199      H4206   1.083       .  S
C4200      C4201   1.406       .  A
C4200      H4207   1.083       .  S
C4201      C4202   1.406       .  A
C4202      H4208   1.084       .  S
C4209      C4210   1.407       .  A
C4209      C4214   1.411       .  A
C4210      C4211   1.394       .  A
C4210      H4219   1.083       .  S
C4211      C4212   1.399       .  A
C4211      H4220   1.084       .  S
C4212      C4218   1.404       .  A
C4212      C4213   1.414       .  A
C4213      C4215   1.406       .  A
C4213      C4214   1.414       .  A
C4214      H4221   1.084       .  S
C4215      C4216   1.405       .  A
C4215      H4222   1.083       .  S
C4216      C4217   1.407       .  A
C4216      H4223   1.083       .  S
C4217      C4218   1.405       .  A
C4218      H4224   1.084       .  S
C4225      C4226   1.406       .  A
C4225      C4230   1.412       .  A
C4226      C4227   1.394       .  A
C4226      H4235   1.083       .  S
C4227      C4228   1.400       .  A
C4227      H4236   1.084       .  S
C4228      C4234   1.404       .  A
C4228      C4229   1.413       .  A
C4229      C4231   1.407       .  A
C4229      C4230   1.415       .  A
C4230      H4237   1.084       .  S
C4231      C4232   1.407       .  A
C4231      H4238   1.083       .  S
C4232      C4233   1.408       .  A
C4232      H4239   1.083       .  S
C4233      C4234   1.407       .  A
C4234      H4240   1.084       .  S
C4241      C4242   1.406       .  A
C4241      C4246   1.405       .  A
C4242      C4243   1.407       .  A
C4242      H4251   1.083       .  S
C4243      C4244   1.408       .  A
C4243      H4252   1.083       .  S
C4244      C4250   1.415       .  A
C4244      C4245   1.414       .  A
C4245      C4247   1.399       .  A
C4245      C4246   1.401       .  A
C4246      H4253   1.084       .  S
C4247      C4248   1.392       .  A
C4247      H4254   1.084       .  S
C4248      C4249   1.403       .  A
C4248      H4255   1.084       .  S
C4249      C4250   1.410       .  A
C4250      H4256   1.084       .  S
C4257      C4258   1.406       .  A
C4257      C4262   1.407       .  A
C4258      C4259   1.403       .  A
C4258      H4267   1.083       .  S
C4259      C4260   1.405       .  A
C4259      H4268   1.083       .  S
C4260      C4266   1.412       .  A
C4260      C4261   1.414       .  A
C4261      C4263   1.400       .  A
C4261      C4262   1.405       .  A
C4262      H4269   1.084       .  S
C4263      C4264   1.395       .  A
C4263      H4270   1.084       .  S
C4264      C4265   1.407       .  A
C4264      H4271   1.083       .  S
C4265      C4266   1.409       .  A
C4266      H4272   1.084       .  S
C4273      C4274   1.406       .  A
C4273      C4278   1.406       .  A
C4274      C4275   1.405       .  A
C4274      H4283   1.083       .  S
C4275      C4276   1.406       .  A
C4275      H4284   1.083       .  S
C4276      C4282   1.412       .  A
C4276      C4277   1.413       .  A
C4277      C4279   1.400       .  A
C4277      C4278   1.404       .  A
C4278      H4285   1.084       .  S
C4279      C4280   1.396       .  A
C4279      H4286   1.084       .  S
C4280      C4281   1.407       .  A
C4280      H4287   1.083       .  S
C4281      C4282   1.411       .  A
C4282      H4288   1.084       .  S
C4289      C4290   1.407       .  A
C4289      C4294   1.412       .  A
C4290      C4291   1.388       .  A
C4290      H4299   1.083       .  S
C4291      C4292   1.396       .  A
C4291      H4300   1.084       .  S
C4292      C4298   1.399       .  A
C4292      C4293   1.414       .  A
C4293      C4295   1.407       .  A
C4293      C4294   1.416       .  A
C4294      H4301   1.084       .  S
C4295      C4296   1.407       .  A
C4295      H4302   1.083       .  S
C4296      C4297   1.407       .  A
C4296      H4303   1.083       .  S
C4297      C4298   1.403       .  A
C4298      H4304   1.085       .  S
C4305      C4306   1.407       .  A
C4305      C4310   1.405       .  A
C4306      C4307   1.410       .  A
C4306      H4315   1.083       .  S
C4307      C4308   1.409       .  A
C4307      H4316   1.083       .  S
C4308      C4314   1.418       .  A
C4308      C4309   1.413       .  A
C4309      C4311   1.397       .  A
C4309      C4310   1.400       .  A
C4310      H4317   1.084       .  S
C4311      C4312   1.390       .  A
C4311      H4318   1.084       .  S
C4312      C4313   1.406       .  A
C4312      H4319   1.083       .  S
C4313      C4314   1.414       .  A
C4314      H4320   1.084       .  S
