geometry optimzed in LAMMPS
_audit_creation_date              2020-11-30 
_audit_creation_method            'lammps2cif' 
_symmetry_space_group_name_H-M    'P1' 
_symmetry_Int_Tables_number       1 
_symmetry_cell_setting            triclinic 
loop_ 
_symmetry_equiv_pos_as_xyz 
  x,y,z 
_cell_length_a                    30.19408001 
_cell_length_b                    39.111135670349945 
_cell_length_c                    47.478813388412604 
_cell_angle_alpha                 90.13163527780848 
_cell_angle_beta                  110.20466511856704 
_cell_angle_gamma                 89.85545501083193 
loop_ 
_atom_site_label 
_atom_site_type_symbol 
_atom_site_fract_x 
_atom_site_fract_y 
_atom_site_fract_z 
_atom_site_charge 
O1          O  0.93440051  0.03224441  0.99058516    -0.72400
O2          O  0.01210920  0.94742570  0.01574260    -0.70800
O3          O  0.99418139  0.00566463  0.04621755    -0.62000
O4          O  0.95307850  0.97438989  0.96016717    -0.70400
O5          O  0.01433148  0.00107860  0.95504860    -0.69900
O6          O  0.05422471  0.03359375  0.04015477    -0.61200
O7          O  0.07369654  0.97428825  0.01156306    -0.73700
O8          O  0.99479566  0.05936663  0.98439296    -0.72500
Cu9        Cu  0.97136867  0.98898562  0.00338160     1.04600
Cu10       Cu  0.03646407  0.01790721  0.99758717     1.04300
C11         C  0.95201048  0.05917467  0.98354496     0.93800
C12         C  0.05544223  0.94719071  0.01795825     0.93000
C13         C  0.03014965  0.02515909  0.05644960     0.85100
C14         C  0.97724621  0.98292217  0.94386701     0.91400
N15         N  0.68860785  0.30823633  0.90885880    -0.26700
N16         N  0.69672094  0.30572491  0.88327222    -0.34600
C17         C  0.72472446  0.27851664  0.88461169     0.01600
C18         C  0.73488740  0.26326449  0.91238396     0.07600
C19         C  0.71152961  0.28279263  0.92723202    -0.05500
H20         H  0.73703807  0.27053563  0.86675042     0.08300
H21         H  0.71098057  0.27868067  0.94960315     0.09500
Cu22       Cu  0.66891548  0.33895460  0.84736357     0.44200
Cu23       Cu  0.64583208  0.34565686  0.91741253     0.42000
Cu24       Cu  0.58947994  0.40404408  0.85656218     0.43900
N25         N  0.63285136  0.37319833  0.81385972    -0.34100
N26         N  0.60386221  0.39688679  0.81735153    -0.28400
C27         C  0.58456171  0.41387332  0.79139224    -0.04500
C28         C  0.60198095  0.40015312  0.77041154     0.07700
C29         C  0.63265433  0.37446173  0.78548771     0.01500
H30         H  0.55927868  0.43446423  0.78796360     0.09200
H31         H  0.65243988  0.35736672  0.77630687     0.08300
N32         N  0.57929578  0.40563974  0.89750265    -0.35600
N33         N  0.60030951  0.38458599  0.91992406    -0.27700
C34         C  0.58776852  0.39313225  0.94360663    -0.03000
C35         C  0.55720150  0.42072553  0.93557537     0.05600
C36         C  0.55260201  0.42797625  0.90621918     0.03700
H37         H  0.60045647  0.38054123  0.96517654     0.08800
H38         H  0.53242112  0.44858292  0.89249672     0.07700
N39         N  0.30271661  0.68921479  0.09005121    -0.26700
N40         N  0.29764042  0.69258707  0.11651008    -0.34600
C41         C  0.26918297  0.71931477  0.11562336     0.01600
C42         C  0.25579804  0.73371410  0.08735212     0.07600
C43         C  0.27764331  0.71393651  0.07168220    -0.05500
H44         H  0.25927681  0.72780697  0.13434061     0.08300
H45         H  0.27608509  0.71759175  0.04879102     0.09500
Cu46       Cu  0.33081513  0.66250004  0.15364803     0.44200
Cu47       Cu  0.34411324  0.65168183  0.08004675     0.42000
Cu48       Cu  0.41137504  0.60069177  0.14381920     0.43900
N49         N  0.37053416  0.63059987  0.18775405    -0.34100
N50         N  0.40044804  0.60790118  0.18395297    -0.28400
C51         C  0.41954410  0.58999586  0.20938122    -0.04500
C52         C  0.40076532  0.60205694  0.23022788     0.07700
C53         C  0.36991788  0.62789967  0.21586176     0.01500
H54         H  0.44447737  0.56924700  0.21226858     0.09200
H55         H  0.34769040  0.64288143  0.22484918     0.08300
N56         N  0.41315125  0.59358013  0.10117766    -0.35600
N57         N  0.38833034  0.61172715  0.07751902    -0.27700
C58         C  0.39573696  0.59905602  0.05309466    -0.03000
C59         C  0.42656770  0.57158222  0.06197052     0.05600
C60         C  0.43693438  0.56902614  0.09259249     0.03700
H61         H  0.37898175  0.60849509  0.03051445     0.08800
H62         H  0.45945080  0.55025571  0.10750980     0.07700
O63         O  0.51593159  0.49790683  0.45554222    -0.72400
O64         O  0.54450348  0.46807129  0.54050943    -0.73400
O65         O  0.48437845  0.44443113  0.48373769    -0.62000
O66         O  0.57555307  0.52255599  0.51271906    -0.70400
O67         O  0.51719917  0.55578313  0.51403435    -0.69900
O68         O  0.42738345  0.47700215  0.48900833    -0.61200
O69         O  0.48877004  0.50268266  0.54483289    -0.73700
O70         O  0.45653171  0.52954415  0.45828117    -0.72500
Cu71       Cu  0.53217987  0.48216588  0.49803282     1.04600
Cu72       Cu  0.47050615  0.51745280  0.50166899     1.04300
C73         C  0.48102469  0.51776543  0.44318182     0.93800
C74         C  0.52127071  0.48052678  0.55604799     0.93000
C75         C  0.44147744  0.44848003  0.48199793     0.85100
C76         C  0.56089229  0.55180177  0.51792097     0.91400
N77         N  0.18680843  0.19603663  0.41015162    -0.26700
N78         N  0.18659625  0.20274687  0.38280675    -0.34600
C79         C  0.20970293  0.23220356  0.38324829     0.01600
C80         C  0.22548717  0.24460669  0.41226821     0.07600
C81         C  0.21064304  0.22102039  0.42885090    -0.05500
H82         H  0.21540264  0.24338119  0.36401044     0.08300
H83         H  0.21672302  0.22194976  0.45260936     0.09500
Cu84       Cu  0.15647489  0.17149850  0.34587734     0.44200
Cu85       Cu  0.15323686  0.15359933  0.42029174     0.42000
Cu86       Cu  0.08920001  0.10021254  0.35570981     0.43900
N87         N  0.12362274  0.13721184  0.31180468    -0.34100
N88         N  0.09811729  0.11116953  0.31516726    -0.28400
C89         C  0.08147961  0.09385565  0.28907313    -0.04500
C90         C  0.09754657  0.10974889  0.26837175     0.07700
C91         C  0.12415450  0.13713229  0.28359954     0.01500
H92         H  0.05996650  0.07111042  0.28556668     0.09200
H93         H  0.14248910  0.15567628  0.27480840     0.08300
N94         N  0.08818037  0.09279988  0.39884568    -0.35600
N95         N  0.11174724  0.11168442  0.42239639    -0.27700
C96         C  0.10330992  0.09971005  0.44665825    -0.03000
C97         C  0.07301143  0.07198225  0.43796876     0.05600
C98         C  0.06422376  0.06844986  0.40749892     0.03700
H99         H  0.11821153  0.11034431  0.46899274     0.08800
H100        H  0.04170782  0.04965969  0.39259850     0.07700
N101        N  0.83094014  0.79825982  0.59497617    -0.26700
N102        N  0.82154533  0.79662702  0.62013721    -0.34600
C103        C  0.79340966  0.76972757  0.61889724     0.01600
C104        C  0.78493112  0.75298390  0.59182033     0.07600
C105        C  0.80960869  0.77183216  0.57728253    -0.05500
H106        H  0.77928126  0.76336831  0.63628727     0.08300
H107        H  0.81154627  0.76698425  0.55531082     0.09500
Cu108      Cu  0.84684018  0.83045566  0.65551628     0.44200
Cu109      Cu  0.86873985  0.83830528  0.58505832     0.42000
Cu110      Cu  0.91042686  0.90268219  0.64446221     0.43900
N111        N  0.87634773  0.86627087  0.68867912    -0.34100
N112        N  0.89994687  0.89309154  0.68465310    -0.28400
C113        C  0.91391522  0.91190422  0.70993409    -0.04500
C114        C  0.89818376  0.89616125  0.73085909     0.07700
C115        C  0.87458108  0.86723102  0.71657982     0.01500
H116        H  0.93375130  0.93544482  0.71280905     0.09200
H117        H  0.85655265  0.84861525  0.72556101     0.08300
N118        N  0.91750053  0.90663589  0.60265151    -0.35600
N119        N  0.90290142  0.88345613  0.58107445    -0.27700
C120        C  0.91401154  0.89410742  0.55735648    -0.03000
C121        C  0.93682050  0.92536587  0.56445531     0.05600
C122        C  0.93818946  0.93246528  0.59328644     0.03700
H123        H  0.90671670  0.87991471  0.53667150     0.08800
H124        H  0.95339362  0.95477268  0.60661145     0.07700
C125        C  0.03791721  0.99418742  0.47405399    -0.04900
C126        C  0.01590118  0.00973902  0.49260616     0.09200
C127        C  0.01329497  0.04569774  0.49368366    -0.02300
C128        C  0.03157986  0.06605576  0.47572893    -0.00600
C129        C  0.05371854  0.05057128  0.45704572    -0.04200
C130        C  0.05692780  0.01445015  0.45643788     0.02900
C131        C  0.99543276  0.98810933  0.51106903     0.09700
C132        C  0.99188763  0.06168331  0.51344955     0.35600
C133        C  0.08096244  0.99797473  0.43835838     0.39000
C134        C  0.02347904  0.97851546  0.54043558    -0.04500
C135        C  0.00459227  0.95759074  0.55766227     0.02600
C136        C  0.95710692  0.94649702  0.54579680    -0.04100
C137        C  0.92893042  0.95642345  0.51641254    -0.00400
C138        C  0.94813607  0.97702919  0.49909891    -0.02900
C139        C  0.07182811  0.99041039  0.55295413     0.36300
C140        C  0.87961474  0.94665741  0.50436908     0.39900
C141        C  0.03462108  0.94673979  0.58732953     0.39100
C142        C  0.91912107  0.98725808  0.46902227     0.36000
C143        C  0.04136662  0.95721033  0.47339396     0.36700
C144        C  0.02565380  0.10287122  0.47558014     0.39900
N145        N  0.05856309  0.93806384  0.61099273    -0.38100
N146        N  0.11032996  0.00004529  0.56296686    -0.39700
N147        N  0.84021185  0.93899495  0.49478989    -0.37500
N148        N  0.89603273  0.99549862  0.44503283    -0.39900
N149        N  0.97504687  0.07434402  0.52938811    -0.39600
N150        N  0.02065402  0.13222925  0.47537318    -0.37300
N151        N  0.10011512  0.98475626  0.42395385    -0.38300
N152        N  0.04412575  0.92770875  0.47297416    -0.40000
C153        C  0.72357873  0.66699643  0.58974931    -0.04900
C154        C  0.69209965  0.66609203  0.55990317     0.09200
C155        C  0.69208196  0.69289738  0.54014144    -0.02300
C156        C  0.72215586  0.72127424  0.55043703    -0.00600
C157        C  0.75381042  0.72255629  0.58052506    -0.04200
C158        C  0.75457446  0.69489289  0.60002543     0.02900
C159        C  0.65860116  0.63683147  0.54925017     0.09700
C160        C  0.66097414  0.69113104  0.50907297     0.35600
C161        C  0.78790206  0.69438252  0.63054047     0.39000
C162        C  0.61518276  0.63705803  0.55408309    -0.04500
C163        C  0.58312203  0.60974971  0.54370670     0.02600
C164        C  0.59465193  0.58127340  0.52868698    -0.04100
C165        C  0.63899730  0.58132039  0.52428055    -0.00400
C166        C  0.67039852  0.60904348  0.53435685    -0.02900
C167        C  0.60370192  0.66554073  0.57003051     0.36300
C168        C  0.65298530  0.55324938  0.50914502     0.39900
C169        C  0.53875681  0.61133942  0.54921144     0.39100
C170        C  0.71526461  0.60910784  0.52945045     0.36000
C171        C  0.72428326  0.63884856  0.60977436     0.36700
C172        C  0.71854548  0.74969055  0.53018792     0.39900
N173        N  0.50344296  0.61297084  0.55365131    -0.38100
N174        N  0.59469510  0.68816407  0.58287258    -0.39700
N175        N  0.66481985  0.53088839  0.49736751    -0.37500
N176        N  0.75101666  0.60931285  0.52552680    -0.39900
N177        N  0.63644273  0.68949637  0.48424398    -0.39600
N178        N  0.71537383  0.77226164  0.51387723    -0.37300
N179        N  0.81421689  0.69377581  0.65496024    -0.38300
N180        N  0.72474465  0.61631693  0.62563200    -0.40000
C181        C  0.35151602  0.37958590  0.47979348    -0.04900
C182        C  0.34400259  0.36466873  0.45142576     0.09200
C183        C  0.36715883  0.37811551  0.43269083    -0.02300
C184        C  0.39945393  0.40527533  0.44283759    -0.00600
C185        C  0.40752553  0.41992996  0.47140763    -0.04200
C186        C  0.38260289  0.40751659  0.48957657     0.02900
C187        C  0.31298117  0.33393125  0.44169934     0.09700
C188        C  0.35729374  0.36413647  0.40283438     0.35600
C189        C  0.38970038  0.42295554  0.51862987     0.39000
C190        C  0.26529990  0.33755860  0.42319525    -0.04500
C191        C  0.23650742  0.30836864  0.41371520     0.02600
C192        C  0.25502954  0.27545901  0.42324264    -0.04100
C193        C  0.30268155  0.27192133  0.44191326    -0.00400
C194        C  0.33173521  0.30102658  0.45070573    -0.02900
C195        C  0.24620453  0.37134276  0.41360454     0.36300
C196        C  0.32231453  0.23819537  0.45118340     0.39900
C197        C  0.18772945  0.31221924  0.39429382     0.39100
C198        C  0.38144817  0.29713224  0.46817733     0.36000
C199        C  0.32735172  0.36599425  0.49893764     0.36700
C200        C  0.42348414  0.41873273  0.42354095     0.39900
N201        N  0.14884424  0.31531380  0.37873599    -0.38100
N202        N  0.23113572  0.39833497  0.40591790    -0.39700
N203        N  0.33792000  0.21126556  0.45855843    -0.37500
N204        N  0.42122978  0.29411660  0.48184938    -0.39900
N205        N  0.34895723  0.35317249  0.37890215    -0.39600
N206        N  0.44272039  0.42949157  0.40820291    -0.37300
N207        N  0.39523674  0.43535087  0.54175574    -0.38300
N208        N  0.30811809  0.35507004  0.51421119    -0.40000
C209        C  0.41208440  0.53975432  0.29366702    -0.04900
C210        C  0.43079555  0.56106592  0.31904943     0.09200
C211        C  0.43825025  0.59614300  0.31514169    -0.02300
C212        C  0.42770846  0.60972373  0.28609203    -0.00600
C213        C  0.40960905  0.58831416  0.26074288    -0.04200
C214        C  0.40116094  0.55340751  0.26459716     0.02900
C215        C  0.44362656  0.54678298  0.35007705     0.09700
C216        C  0.45767475  0.61814957  0.34115045     0.35600
C217        C  0.37998428  0.53171314  0.23858339     0.39000
C218        C  0.49153395  0.54403652  0.36839646    -0.04500
C219        C  0.50390659  0.53479610  0.39882664     0.02600
C220        C  0.46837744  0.52682191  0.41091528    -0.04100
C221        C  0.42048899  0.52719364  0.39187336    -0.00400
C222        C  0.40814567  0.53778655  0.36175414    -0.02900
C223        C  0.52813796  0.55121449  0.35589082     0.36300
C224        C  0.38387752  0.51555489  0.40290525     0.39900
C225        C  0.55323638  0.53494806  0.41777959     0.39100
C226        C  0.35884086  0.53976244  0.34284253     0.36000
C227        C  0.40461325  0.50368228  0.29743974     0.36700
C228        C  0.43696764  0.64551352  0.28240161     0.39900
N229        N  0.59272108  0.53524311  0.43264205    -0.38100
N230        N  0.55717541  0.55701021  0.34582570    -0.39700
N231        N  0.35481145  0.50601483  0.41170449    -0.37500
N232        N  0.31952192  0.54113440  0.32770547    -0.39900
N233        N  0.47366625  0.63548317  0.36197753    -0.39600
N234        N  0.44440357  0.67407505  0.27955675    -0.37300
N235        N  0.36291364  0.51458527  0.21774796    -0.38300
N236        N  0.39837363  0.47492073  0.30032751    -0.40000
C237        C  0.54822750  0.47683504  0.99895697    -0.04900
C238        C  0.49884017  0.48052910  0.99087226     0.09200
C239        C  0.46860133  0.46357627  0.96516684    -0.02300
C240        C  0.48762215  0.44361729  0.94729245    -0.00600
C241        C  0.53703788  0.44046332  0.95504483    -0.04200
C242        C  0.56726893  0.45702921  0.98102235     0.02900
C243        C  0.47880834  0.50381944  0.00853853     0.09700
C244        C  0.41786356  0.46711707  0.95693534     0.35600
C245        C  0.61804719  0.45508200  0.98851943     0.39000
C246        C  0.48171596  0.53959313  0.00568466    -0.04500
C247        C  0.46477335  0.56179382  0.02313117     0.02600
C248        C  0.44325049  0.54836707  0.04283807    -0.04100
C249        C  0.43858378  0.51250957  0.04472452    -0.00400
C250        C  0.45681092  0.49033757  0.02791211    -0.02900
C251        C  0.50174772  0.55349650  0.98443367     0.36300
C252        C  0.41364365  0.49833758  0.06322033     0.39900
C253        C  0.47124477  0.59838565  0.02157935     0.39100
C254        C  0.45255319  0.45361405  0.03034854     0.36000
C255        C  0.57949832  0.49390974  0.02552322     0.36700
C256        C  0.45625661  0.42606357  0.92106878     0.39900
N257        N  0.47667163  0.62755570  0.02037966    -0.38100
N258        N  0.51756216  0.56438868  0.96733272    -0.39700
N259        N  0.39360230  0.48709562  0.07790346    -0.37500
N260        N  0.44875342  0.42434255  0.03217623    -0.39900
N261        N  0.37742262  0.46990023  0.95061236    -0.39600
N262        N  0.43112520  0.41208203  0.90016440    -0.37300
N263        N  0.65851841  0.45361019  0.99433612    -0.38300
N264        N  0.60452113  0.50761288  0.04663577    -0.40000
C265        C  0.55574857  0.47967720  0.64101305    -0.04900
C266        C  0.55178896  0.44455043  0.64646012     0.09200
C267        C  0.53715397  0.42139095  0.62216925    -0.02300
C268        C  0.52728064  0.43322476  0.59260203    -0.00600
C269        C  0.53156692  0.46835905  0.58715645    -0.04200
C270        C  0.54614866  0.49151653  0.61146693     0.02900
C271        C  0.56453126  0.43189418  0.67797032     0.09700
C272        C  0.53220211  0.38537497  0.62762966     0.35600
C273        C  0.55386733  0.52717827  0.60632599     0.39000
C274        C  0.52892935  0.42436917  0.68990780    -0.04500
C275        C  0.54109652  0.41327301  0.71988228     0.02600
C276        C  0.58912119  0.41025528  0.73834855    -0.04100
C277        C  0.62472284  0.41757331  0.72618421    -0.00400
C278        C  0.61240292  0.42812868  0.69605675    -0.02900
C279        C  0.47971501  0.42844550  0.67134465     0.36300
C280        C  0.67412479  0.41564991  0.74489661     0.39900
C281        C  0.50398997  0.40409058  0.73134824     0.39100
C282        C  0.64900563  0.43555444  0.68363939     0.36000
C283        C  0.56974860  0.50359393  0.66593067     0.36700
C284        C  0.51240528  0.40923242  0.56772842     0.39900
N285        N  0.47432382  0.39673588  0.74042788    -0.38100
N286        N  0.44048902  0.43172367  0.65649021    -0.39700
N287        N  0.71357595  0.41420656  0.75976578    -0.37500
N288        N  0.67808234  0.44158977  0.67366868    -0.39900
N289        N  0.52791966  0.35666028  0.63190768    -0.39600
N290        N  0.50071104  0.39015516  0.54785558    -0.37300
N291        N  0.56074187  0.55558991  0.60252825    -0.38300
N292        N  0.58084093  0.52257876  0.68587598    -0.40000
C293        C  0.03427677  0.08520227  0.18647802    -0.04900
C294        C  0.07270492  0.07925674  0.17665450     0.09200
C295        C  0.11915903  0.08441879  0.19656990    -0.02300
C296        C  0.12733984  0.09401429  0.22660268    -0.00600
C297        C  0.08892707  0.09939127  0.23672743    -0.04200
C298        C  0.04230059  0.09520997  0.21640780     0.02900
C299        C  0.06422227  0.06573312  0.14574407     0.09700
C300        C  0.15849908  0.07987478  0.18600016     0.35600
C301        C  0.00242082  0.10187615  0.22602130     0.39000
C302        C  0.05032418  0.08790322  0.12079428    -0.04500
C303        C  0.04037976  0.07466426  0.09160258     0.02600
C304        C  0.04329302  0.03909264  0.08722220    -0.04100
C305        C  0.05855454  0.01708313  0.11223617    -0.00400
C306        C  0.06941700  0.03041768  0.14144809    -0.02900
C307        C  0.04621253  0.12430646  0.12522128     0.36300
C308        C  0.06468668  0.98088802  0.10803446     0.39900
C309        C  0.02649657  0.09759804  0.06601857     0.39100
C310        C  0.08633531  0.00786267  0.16719270     0.36000
C311        C  0.98642473  0.08113957  0.16562192     0.36700
C312        C  0.17544172  0.09675321  0.24735781     0.39900
N313        N  0.01570918  0.11586437  0.04560694    -0.38100
N314        N  0.04283546  0.15335512  0.12872829    -0.39700
N315        N  0.07011515  0.95201382  0.10497740    -0.37500
N316        N  0.10029903  0.98998892  0.18778398    -0.39900
N317        N  0.18974075  0.07639156  0.17741515    -0.39600
N318        N  0.21386926  0.09872054  0.26388978    -0.37300
N319        N  0.97050106  0.10716956  0.23359984    -0.38300
N320        N  0.94833681  0.07811611  0.14882233    -0.40000
C321        C  0.92907023  0.89915295  0.81582386    -0.04900
C322        C  0.92017772  0.93385408  0.82027327     0.09200
C323        C  0.90095809  0.95545820  0.79522756    -0.02300
C324        C  0.89209526  0.94273589  0.76597646    -0.00600
C325        C  0.90382977  0.90857440  0.76157257    -0.04200
C326        C  0.92155985  0.88662919  0.78664662     0.02900
C327        C  0.93417211  0.94800165  0.85148573     0.09700
C328        C  0.89093906  0.99097342  0.79958731     0.35600
C329        C  0.93406687  0.85154089  0.78273550     0.39000
C330        C  0.98233717  0.95307023  0.86818517    -0.04500
C331        C  0.99644719  0.96464474  0.89813079     0.02600
C332        C  0.96229280  0.97163352  0.91176948    -0.04100
C333        C  0.91372756  0.96791224  0.89437245    -0.00400
C334        C  0.89986868  0.95601850  0.86445496    -0.02900
C335        C  0.01754495  0.94645280  0.85433952     0.36300
C336        C  0.87760464  0.97743000  0.90667492     0.39900
C337        C  0.04644681  0.96865802  0.91475081     0.39100
C338        C  0.85017608  0.95232496  0.84684251     0.36000
C339        C  0.94669212  0.87647339  0.84146164     0.36700
C340        C  0.86957719  0.96462680  0.74036240     0.39900
N341        N  0.08641323  0.97203794  0.92764603    -0.38100
N342        N  0.04552004  0.94114296  0.84325487    -0.39700
N343        N  0.84871485  0.98506095  0.91640450    -0.37500
N344        N  0.81053122  0.94975416  0.83268426    -0.39900
N345        N  0.88271072  0.01926860  0.80303724    -0.39600
N346        N  0.85136495  0.98197013  0.71988810    -0.37300
N347        N  0.94415489  0.82353646  0.77976074    -0.38300
N348        N  0.96073158  0.85846715  0.86195874    -0.40000
C349        C  0.15150093  0.87872226  0.02896037    -0.04900
C350        C  0.13788079  0.85396510  0.04580045     0.09200
C351        C  0.09764411  0.85946064  0.05371486    -0.02300
C352        C  0.07085712  0.88971062  0.04483995    -0.00600
C353        C  0.08433398  0.91514050  0.02788409    -0.04200
C354        C  0.12540041  0.90928110  0.02029886     0.02900
C355        C  0.16760084  0.82277613  0.05656464     0.09700
C356        C  0.08421765  0.83393863  0.07142321     0.35600
C357        C  0.14158623  0.93437231  0.00361285     0.39000
C358        C  0.20695005  0.82423314  0.08332123    -0.04500
C359        C  0.23559669  0.79513268  0.09350299     0.02600
C360        C  0.22556178  0.76444691  0.07660303    -0.04100
C361        C  0.18616047  0.76315144  0.04966066    -0.00400
C362        C  0.15693597  0.79211966  0.03992090    -0.02900
C363        C  0.21798857  0.85591169  0.10027466     0.36300
C364        C  0.17479657  0.73177504  0.03231175     0.39900
C365        C  0.27610774  0.79725255  0.12101087     0.39100
C366        C  0.11552003  0.79036738  0.01293680     0.36000
C367        C  0.19277642  0.87258919  0.02059920     0.36700
C368        C  0.03041671  0.89460946  0.05430673     0.39900
N369        N  0.30824160  0.79901748  0.14304653    -0.38100
N370        N  0.22671508  0.88127220  0.11364672    -0.39700
N371        N  0.16584129  0.70677876  0.01841144    -0.37500
N372        N  0.08227909  0.78890303  0.99152719    -0.39900
N373        N  0.07361138  0.81355767  0.08554283    -0.39600
N374        N  0.99828276  0.89825045  0.06201811    -0.37300
N375        N  0.15533613  0.95432908  0.99067260    -0.38300
N376        N  0.22564548  0.86755524  0.01394014    -0.40000
C377        C  0.88916590  0.13670152  0.93860049    -0.04900
C378        C  0.85882458  0.14599386  0.95429273     0.09200
C379        C  0.86089806  0.12786395  0.98037157    -0.02300
C380        C  0.89285681  0.10049310  0.99062360    -0.00600
C381        C  0.92201334  0.09025171  0.97430596    -0.04200
C382        C  0.92076213  0.10899649  0.94858766     0.02900
C383        C  0.82591869  0.17579184  0.94402528     0.09700
C384        C  0.82995895  0.13742080  0.99664519     0.35600
C385        C  0.95140209  0.09957276  0.93206112     0.39000
C386        C  0.78398693  0.17263254  0.91896337    -0.04500
C387        C  0.75382659  0.20108892  0.90887931     0.02600
C388        C  0.76534883  0.23285594  0.92387385    -0.04100
C389        C  0.80661054  0.23568497  0.94947950    -0.00400
C390        C  0.83676918  0.20726181  0.95949171    -0.02900
C391        C  0.77164408  0.13993336  0.90382330     0.36300
C392        C  0.81894379  0.26814447  0.96502518     0.39900
C393        C  0.71019184  0.19740199  0.88360529     0.39100
C394        C  0.87920178  0.21034087  0.98572433     0.36000
C395        C  0.88772755  0.15566368  0.91207488     0.36700
C396        C  0.89734335  0.08399988  0.01884325     0.39900
N397        N  0.67526870  0.19444879  0.86353169    -0.38100
N398        N  0.76179036  0.11383147  0.89177018    -0.39700
N399        N  0.82886602  0.29402564  0.97745221    -0.37500
N400        N  0.91288930  0.21252774  0.00678346    -0.39900
N401        N  0.80531136  0.14514722  0.00961742    -0.39600
N402        N  0.90134041  0.07108905  0.04150435    -0.37300
N403        N  0.97611827  0.09218460  0.91903616    -0.38300
N404        N  0.88645961  0.17069447  0.89084219    -0.40000
loop_ 
_geom_bond_atom_site_label_1 
_geom_bond_atom_site_label_2 
_geom_bond_distance 
_geom_bond_site_symmetry_2 
_ccdc_geom_bond_type 
O1           Cu9   2.001   1_546  S
O1           C11   1.277       .  A
O2           Cu9   1.999   1_455  S
O2           C12   1.276       .  A
O3           Cu9   2.016   1_545  S
O3           C13   1.279   1_655  A
O4           Cu9   2.013   1_556  S
O4           C14   1.279       .  A
O5          Cu10   2.006       .  S
O5           C14   1.277   1_445  A
O6          Cu10   1.999   1_554  S
O6           C13   1.275       .  A
O7          Cu10   2.024   1_564  S
O7           C12   1.280       .  A
O8          Cu10   2.014   1_655  S
O8           C11   1.279       .  A
Cu9         Cu10   2.367   1_664  S
C11         C381   1.487       .  S
C12         C353   1.506       .  S
C13         C304   1.479       .  S
C14         C332   1.498       .  S
N15          N16   1.323       .  A
N15          C19   1.347       .  A
N15         Cu23   2.080       .  S
N16          C17   1.345       .  A
N16         Cu22   2.078       .  S
C17          C18   1.383       .  A
C17          H20   1.082       .  S
C18         C388   1.486       .  S
C18          C19   1.384       .  A
C19          H21   1.080       .  S
Cu22         N25   2.077       .  S
Cu23         N33   2.079       .  S
Cu24         N26   2.071       .  S
Cu24         N32   2.071       .  S
N25          N26   1.322       .  A
N25          C29   1.346       .  A
N26          C27   1.344       .  A
C27          C28   1.384       .  A
C27          H30   1.081       .  S
C28         C276   1.489       .  S
C28          C29   1.386       .  A
C29          H31   1.082       .  S
N32          N33   1.322       .  A
N32          C36   1.345       .  A
N33          C34   1.346       .  A
C34          C35   1.384       .  A
C34          H37   1.081       .  S
C35         C241   1.485       .  S
C35          C36   1.382       .  A
C36          H38   1.082       .  S
N39          N40   1.323       .  A
N39          C43   1.346       .  A
N39         Cu47   2.083       .  S
N40          C41   1.343       .  A
N40         Cu46   2.069       .  S
C41          C42   1.382       .  A
C41          H44   1.082       .  S
C42         C360   1.488       .  S
C42          C43   1.386       .  A
C43          H45   1.081       .  S
Cu46         N49   2.068       .  S
Cu47         N57   2.083       .  S
Cu48         N50   2.062       .  S
Cu48         N56   2.062       .  S
N49          N50   1.321       .  A
N49          C53   1.345       .  A
N50          C51   1.342       .  A
C51          C52   1.381       .  A
C51          H54   1.082       .  S
C52         C213   1.482       .  S
C52          C53   1.383       .  A
C53          H55   1.082       .  S
N56          N57   1.322       .  A
N56          C60   1.342       .  A
N57          C58   1.348       .  A
C58          C59   1.387       .  A
C58          H61   1.081       .  S
C59         C248   1.488       .  S
C59          C60   1.381       .  A
C60          H62   1.082       .  S
O63         Cu71   2.003       .  S
O63          C73   1.276       .  A
O64         Cu71   1.999       .  S
O64          C74   1.276       .  A
O65         Cu71   2.013       .  S
O65          C75   1.279       .  A
O66         Cu71   2.018       .  S
O66          C76   1.279       .  A
O67         Cu72   2.004       .  S
O67          C76   1.277       .  A
O68         Cu72   2.006       .  S
O68          C75   1.277       .  A
O69         Cu72   2.015       .  S
O69          C74   1.278       .  A
O70         Cu72   2.012       .  S
O70          C73   1.279       .  A
Cu71        Cu72   2.369       .  S
C73         C220   1.489       .  S
C74         C269   1.480       .  S
C75         C185   1.482       .  S
C76         C164   1.507       .  S
N77          N78   1.323       .  A
N77          C81   1.349       .  A
N77         Cu85   2.089       .  S
N78          C79   1.345       .  A
N78         Cu84   2.071       .  S
C79          C80   1.380       .  A
C79          H82   1.080       .  S
C80         C192   1.485       .  S
C80          C81   1.386       .  A
C81          H83   1.079       .  S
Cu84         N87   2.071       .  S
Cu85         N95   2.089       .  S
Cu86         N88   2.079       .  S
Cu86         N94   2.080       .  S
N87          N88   1.321       .  A
N87          C91   1.345       .  A
N88          C89   1.347       .  A
C89          C90   1.386       .  A
C89          H92   1.081       .  S
C90         C297   1.489       .  S
C90          C91   1.384       .  A
C91          H93   1.082       .  S
N94          N95   1.323       .  A
N94          C98   1.345       .  A
N95          C96   1.348       .  A
C96          C97   1.388       .  A
C96          H99   1.081       .  S
C97         C129   1.494       .  S
C97          C98   1.384       .  A
C98         H100   1.082       .  S
N101        N102   1.321       .  A
N101        C105   1.347       .  A
N101       Cu109   2.088       .  S
N102        C103   1.342       .  A
N102       Cu108   2.065       .  S
C103        C104   1.384       .  A
C103        H106   1.082       .  S
C104        C157   1.497       .  S
C104        C105   1.391       .  A
C105        H107   1.081       .  S
Cu108       N111   2.065       .  S
Cu109       N119   2.089       .  S
Cu110       N112   2.074       .  S
Cu110       N118   2.075       .  S
N111        N112   1.320       .  A
N111        C115   1.344       .  A
N112        C113   1.345       .  A
C113        C114   1.386       .  A
C113        H116   1.082       .  S
C114        C325   1.489       .  S
C114        C115   1.384       .  A
C115        H117   1.083       .  S
N118        N119   1.323       .  A
N118        C122   1.344       .  A
N119        C120   1.348       .  A
C120        C121   1.387       .  A
C120        H123   1.082       .  S
C121        C136   1.491       .  S
C121        C122   1.383       .  A
C122        H124   1.082       .  S
C125        C126   1.410   1_565  A
C125        C130   1.412   1_565  A
C125        C143   1.451       .  S
C126        C131   1.499   1_445  S
C126        C127   1.410       .  A
C127        C128   1.413       .  A
C127        C132   1.450   1_455  S
C128        C129   1.416       .  A
C128        C144   1.450       .  S
C129        C130   1.417       .  A
C130        C133   1.451   1_545  S
C131        C134   1.410   1_655  A
C131        C138   1.411       .  A
C132        N149   1.157       .  T
C133        N151   1.157       .  T
C134        C135   1.411       .  A
C134        C139   1.450       .  S
C135        C136   1.416   1_455  A
C135        C141   1.451       .  S
C136        C137   1.415       .  A
C137        C138   1.413       .  A
C137        C140   1.450       .  S
C138        C142   1.450       .  S
C139        N146   1.157   1_565  T
C140        N147   1.157       .  T
C141        N145   1.157       .  T
C142        N148   1.157       .  T
C143        N152   1.157       .  T
C144        N150   1.157       .  T
C153        C154   1.408       .  A
C153        C158   1.411       .  A
C153        C171   1.452       .  S
C154        C159   1.496       .  S
C154        C155   1.408       .  A
C155        C156   1.411       .  A
C155        C160   1.451       .  S
C156        C157   1.419       .  A
C156        C172   1.450       .  S
C157        C158   1.421       .  A
C158        C161   1.451       .  S
C159        C162   1.407       .  A
C159        C166   1.406       .  A
C160        N177   1.157       .  T
C161        N179   1.158       .  T
C162        C163   1.412       .  A
C162        C167   1.453       .  S
C163        C164   1.427       .  A
C163        C169   1.452       .  S
C164        C165   1.425       .  A
C165        C166   1.412       .  A
C165        C168   1.450       .  S
C166        C170   1.452       .  S
C167        N174   1.157       .  T
C168        N175   1.157       .  T
C169        N173   1.158       .  T
C170        N176   1.157       .  T
C171        N180   1.157       .  T
C172        N178   1.157       .  T
C181        C182   1.411       .  A
C181        C186   1.411       .  A
C181        C199   1.450       .  S
C182        C187   1.497       .  S
C182        C183   1.411       .  A
C183        C184   1.411       .  A
C183        C188   1.450       .  S
C184        C185   1.413       .  A
C184        C200   1.451       .  S
C185        C186   1.414       .  A
C186        C189   1.451       .  S
C187        C190   1.411       .  A
C187        C194   1.411       .  A
C188        N205   1.157       .  T
C189        N207   1.157       .  T
C190        C191   1.412       .  A
C190        C195   1.450       .  S
C191        C192   1.414       .  A
C191        C197   1.450       .  S
C192        C193   1.412       .  A
C193        C194   1.411       .  A
C193        C196   1.450       .  S
C194        C198   1.450       .  S
C195        N202   1.157       .  T
C196        N203   1.157       .  T
C197        N201   1.157       .  T
C198        N204   1.157       .  T
C199        N208   1.157       .  T
C200        N206   1.157       .  T
C209        C210   1.412       .  A
C209        C214   1.410       .  A
C209        C227   1.451       .  S
C210        C215   1.497       .  S
C210        C211   1.414       .  A
C211        C212   1.409       .  A
C211        C216   1.452       .  S
C212        C213   1.411       .  A
C212        C228   1.451       .  S
C213        C214   1.413       .  A
C214        C217   1.451       .  S
C215        C218   1.411       .  A
C215        C222   1.411       .  A
C216        N233   1.157       .  T
C217        N235   1.157       .  T
C218        C219   1.409       .  A
C218        C223   1.452       .  S
C219        C220   1.416       .  A
C219        C225   1.450       .  S
C220        C221   1.416       .  A
C221        C222   1.410       .  A
C221        C224   1.452       .  S
C222        C226   1.451       .  S
C223        N230   1.157       .  T
C224        N231   1.157       .  T
C225        N229   1.157       .  T
C226        N232   1.157       .  T
C227        N236   1.157       .  T
C228        N234   1.157       .  T
C237        C238   1.413       .  A
C237        C242   1.410       .  A
C237        C255   1.451   1_556  S
C238        C243   1.498   1_556  S
C238        C239   1.412       .  A
C239        C240   1.411       .  A
C239        C244   1.451       .  S
C240        C241   1.413       .  A
C240        C256   1.450       .  S
C241        C242   1.413       .  A
C242        C245   1.451       .  S
C243        C246   1.412       .  A
C243        C250   1.411       .  A
C244        N261   1.157       .  T
C245        N263   1.157       .  T
C246        C247   1.410       .  A
C246        C251   1.451   1_554  S
C247        C248   1.413       .  A
C247        C253   1.450       .  S
C248        C249   1.416       .  A
C249        C250   1.411       .  A
C249        C252   1.451       .  S
C250        C254   1.451       .  S
C251        N258   1.157       .  T
C252        N259   1.157       .  T
C253        N257   1.157       .  T
C254        N260   1.157       .  T
C255        N264   1.157       .  T
C256        N262   1.157       .  T
C265        C266   1.412       .  A
C265        C270   1.410       .  A
C265        C283   1.451       .  S
C266        C271   1.495       .  S
C266        C267   1.411       .  A
C267        C268   1.410       .  A
C267        C272   1.450       .  S
C268        C269   1.413       .  A
C268        C284   1.452       .  S
C269        C270   1.412       .  A
C270        C273   1.450       .  S
C271        C274   1.409       .  A
C271        C278   1.411       .  A
C272        N289   1.157       .  T
C273        N291   1.157       .  T
C274        C275   1.411       .  A
C274        C279   1.451       .  S
C275        C276   1.417       .  A
C275        C281   1.451       .  S
C276        C277   1.415       .  A
C277        C278   1.410       .  A
C277        C280   1.451       .  S
C278        C282   1.451       .  S
C279        N286   1.157       .  T
C280        N287   1.157       .  T
C281        N285   1.157       .  T
C282        N288   1.157       .  T
C283        N292   1.157       .  T
C284        N290   1.157       .  T
C293        C294   1.411       .  A
C293        C298   1.411       .  A
C293        C311   1.451   1_455  S
C294        C299   1.496       .  S
C294        C295   1.409       .  A
C295        C296   1.411       .  A
C295        C300   1.451       .  S
C296        C297   1.416       .  A
C296        C312   1.450       .  S
C297        C298   1.415       .  A
C298        C301   1.450       .  S
C299        C302   1.411       .  A
C299        C306   1.412       .  A
C300        N317   1.157       .  T
C301        N319   1.157   1_455  T
C302        C303   1.410       .  A
C302        C307   1.450       .  S
C303        C304   1.413       .  A
C303        C309   1.452       .  S
C304        C305   1.410       .  A
C305        C306   1.409       .  A
C305        C308   1.449   1_545  S
C306        C310   1.451       .  S
C307        N314   1.157       .  T
C308        N315   1.157       .  T
C309        N313   1.157       .  T
C310        N316   1.157   1_545  T
C311        N320   1.157       .  T
C312        N318   1.157       .  T
C321        C322   1.412       .  A
C321        C326   1.411       .  A
C321        C339   1.451       .  S
C322        C327   1.499       .  S
C322        C323   1.411       .  A
C323        C324   1.410       .  A
C323        C328   1.450       .  S
C324        C325   1.415       .  A
C324        C340   1.451       .  S
C325        C326   1.415       .  A
C326        C329   1.451       .  S
C327        C330   1.410       .  A
C327        C334   1.410       .  A
C328        N345   1.157   1_565  T
C329        N347   1.157       .  T
C330        C331   1.410       .  A
C330        C335   1.453   1_655  S
C331        C332   1.420       .  A
C331        C337   1.451   1_655  S
C332        C333   1.420       .  A
C333        C334   1.413       .  A
C333        C336   1.451       .  S
C334        C338   1.451       .  S
C335        N342   1.157       .  T
C336        N343   1.157       .  T
C337        N341   1.157       .  T
C338        N344   1.157       .  T
C339        N348   1.157       .  T
C340        N346   1.157       .  T
C349        C350   1.407       .  A
C349        C354   1.411       .  A
C349        C367   1.452       .  S
C350        C355   1.495       .  S
C350        C351   1.406       .  A
C351        C352   1.412       .  A
C351        C356   1.452       .  S
C352        C353   1.426       .  A
C352        C368   1.452       .  S
C353        C354   1.424       .  A
C354        C357   1.450       .  S
C355        C358   1.409       .  A
C355        C362   1.410       .  A
C356        N373   1.157       .  T
C357        N375   1.157   1_554  T
C358        C359   1.409       .  A
C358        C363   1.451       .  S
C359        C360   1.416       .  A
C359        C365   1.451       .  S
C360        C361   1.415       .  A
C361        C362   1.411       .  A
C361        C364   1.451       .  S
C362        C366   1.450       .  S
C363        N370   1.157       .  T
C364        N371   1.157       .  T
C365        N369   1.157       .  T
C366        N372   1.157   1_554  T
C367        N376   1.157       .  T
C368        N374   1.158   1_455  T
C377        C378   1.412       .  A
C377        C382   1.412       .  A
C377        C395   1.451       .  S
C378        C383   1.498       .  S
C378        C379   1.411       .  A
C379        C380   1.410       .  A
C379        C384   1.451       .  S
C380        C381   1.415       .  A
C380        C396   1.452   1_556  S
C381        C382   1.415       .  A
C382        C385   1.451       .  S
C383        C386   1.412       .  A
C383        C390   1.412       .  A
C384        N401   1.157   1_556  T
C385        N403   1.157       .  T
C386        C387   1.412       .  A
C386        C391   1.451       .  S
C387        C388   1.414       .  A
C387        C393   1.451       .  S
C388        C389   1.413       .  A
C389        C390   1.410       .  A
C389        C392   1.450       .  S
C390        C394   1.451       .  S
C391        N398   1.157       .  T
C392        N399   1.157       .  T
C393        N397   1.157       .  T
C394        N400   1.157   1_556  T
C395        N404   1.157       .  T
C396        N402   1.157       .  T
