geometry optimzed in LAMMPS
_audit_creation_date              2020-11-30 
_audit_creation_method            'lammps2cif' 
_symmetry_space_group_name_H-M    'P1' 
_symmetry_Int_Tables_number       1 
_symmetry_cell_setting            triclinic 
loop_ 
_symmetry_equiv_pos_as_xyz 
  x,y,z 
_cell_length_a                    40.81929718 
_cell_length_b                    40.82384108029792 
_cell_length_c                    40.89037416769284 
_cell_angle_alpha                 90.77501311088918 
_cell_angle_beta                  90.18719064360725 
_cell_angle_gamma                 89.99112004587064 
loop_ 
_atom_site_label 
_atom_site_type_symbol 
_atom_site_fract_x 
_atom_site_fract_y 
_atom_site_fract_z 
_atom_site_charge 
N1          N  0.44534000  0.66970683  0.98894477    -0.26500
N2          N  0.43135712  0.64116951  0.98195540    -0.34400
C3          C  0.39858057  0.64414592  0.98305915     0.01800
C4          C  0.39081129  0.67611829  0.99090103     0.07800
C5          C  0.42109330  0.69182621  0.99427022    -0.05300
H6          H  0.38155919  0.62471097  0.97688996     0.08500
H7          H  0.42505772  0.71759967  0.99929891     0.09700
Cu8        Cu  0.45563195  0.59924064  0.96742979     0.44200
Cu9        Cu  0.49739396  0.67623706  0.98910588     0.42000
Cu10       Cu  0.54106533  0.60172556  0.96219862     0.43900
N11         N  0.48272336  0.55921504  0.95263960    -0.33900
N12         N  0.51496603  0.55999381  0.95096997    -0.28200
C13         C  0.52613848  0.52990227  0.94334460    -0.04300
C14         C  0.49943191  0.50926400  0.93998847     0.07900
C15         C  0.47229962  0.52867583  0.94594549     0.01700
H16         H  0.55176274  0.52331528  0.94184656     0.09400
H17         H  0.44692975  0.52087490  0.94708113     0.08500
N18         N  0.56399420  0.64484491  0.97513897    -0.35400
N19         N  0.54953977  0.67215983  0.98535155    -0.27600
C20         C  0.57336931  0.69464514  0.99142502    -0.02800
C21         C  0.60379542  0.68056649  0.98430055     0.05800
C22         C  0.59655897  0.64908480  0.97422711     0.03900
H23         H  0.56896206  0.71947302  0.99982803     0.09000
H24         H  0.61384567  0.63040595  0.96667200     0.07900
N25         N  0.44869223  0.32288125  0.99621350    -0.26500
N26         N  0.43426190  0.34414173  0.97675402    -0.34400
C27         C  0.40170936  0.33933257  0.97680131     0.01800
C28         C  0.39431293  0.31409561  0.99778456     0.07800
C29         C  0.42498343  0.30448661  0.00989504    -0.05300
H30         H  0.38482195  0.35284693  0.96179506     0.08500
H31         H  0.42985757  0.28520654  0.02709040     0.09700
Cu32       Cu  0.45752559  0.38117555  0.95232738     0.44200
Cu33       Cu  0.50063130  0.31832296  0.00025081     0.42000
Cu34       Cu  0.54296103  0.38214242  0.95525038     0.43900
N35         N  0.48412887  0.42202781  0.94029307    -0.33900
N36         N  0.51641349  0.42237033  0.94132546    -0.28200
C37         C  0.52700487  0.45335339  0.93870444    -0.04300
C38         C  0.49991889  0.47349883  0.93627795     0.07900
C39         C  0.47312056  0.45281394  0.93714167     0.01700
H40         H  0.55232557  0.46089559  0.94171578     0.09400
H41         H  0.44761815  0.45981890  0.93856762     0.08500
N42         N  0.56660440  0.34382743  0.97726840    -0.35400
N43         N  0.55251402  0.32042670  0.99434311    -0.27600
C44         C  0.57652483  0.30037376  0.00538337    -0.02800
C45         C  0.60679778  0.31196459  0.99450705     0.05800
C46         C  0.59916411  0.33956067  0.97701516     0.03900
H47         H  0.57234294  0.27880999  0.01983802     0.09000
H48         H  0.61622260  0.35573036  0.96499118     0.07900
N49         N  0.68016547  0.99729084  0.44426307    -0.26500
N50         N  0.65132255  0.00418380  0.43111989    -0.34400
C51         C  0.65360576  0.00473546  0.39844732     0.01800
C52         C  0.68534409  0.99782859  0.38978156     0.07800
C53         C  0.70175959  0.99305863  0.41938704    -0.05300
H54         H  0.63349602  0.01011117  0.38211970     0.08500
H55         H  0.72749011  0.98746525  0.42251740     0.09700
Cu56       Cu  0.60897003  0.01425576  0.45582815     0.44200
Cu57       Cu  0.68699684  0.99519431  0.49613007     0.42000
Cu58       Cu  0.60996722  0.01225337  0.54041655     0.43900
N59         N  0.56875111  0.02711696  0.48271633    -0.33900
N60         N  0.56906535  0.02651584  0.51491827    -0.28200
C61         C  0.53951961  0.03555029  0.52615560    -0.04300
C62         C  0.51975235  0.04202864  0.49947574     0.07900
C63         C  0.53904278  0.03645359  0.47230897     0.01700
H64         H  0.53273573  0.03631447  0.55168611     0.09400
H65         H  0.53183887  0.03815103  0.44680610     0.08500
N66         N  0.65363436  0.00128903  0.56290280    -0.35400
N67         N  0.68200954  0.99558019  0.54824214    -0.27600
C68         C  0.70495752  0.99155452  0.57192814    -0.02800
C69         C  0.69006730  0.99516923  0.60250997     0.05800
C70         C  0.65761232  0.00107351  0.59547244     0.03900
H71         H  0.73073069  0.98727044  0.56734457     0.09000
H72         H  0.63819036  0.00570967  0.61290825     0.07900
N73         N  0.31990086  0.01690728  0.45341200    -0.26500
N74         N  0.34685197  0.02607266  0.43805197    -0.34400
C75         C  0.34275188  0.02281259  0.40560153     0.01800
C76         C  0.31161426  0.01128461  0.39927484     0.07800
C77         C  0.29773561  0.00764194  0.43028582    -0.05300
H78         H  0.36154099  0.02796067  0.38779761     0.08500
H79         H  0.27330079  0.99886687  0.43555860     0.09700
Cu80       Cu  0.38991486  0.04149877  0.45944629     0.44200
Cu81       Cu  0.31607779  0.01703236  0.50572466     0.42000
Cu82       Cu  0.39230139  0.04437429  0.54420293     0.43900
N83         N  0.43283255  0.04975234  0.48458741    -0.33900
N84         N  0.43357586  0.05071556  0.51680362    -0.28200
C85         C  0.46478862  0.05049536  0.52707031    -0.04300
C86         C  0.48465229  0.04915290  0.49985094     0.07900
C87         C  0.46364996  0.04898036  0.47323505     0.01700
H88         H  0.47229156  0.04850969  0.55247091     0.09400
H89         H  0.47009049  0.04550558  0.44782933     0.08500
N90         N  0.35182206  0.03085935  0.57011963    -0.35400
N91         N  0.32375244  0.02028930  0.55758296    -0.27600
C92         C  0.30393282  0.01259346  0.58294941    -0.02800
C93         C  0.32060498  0.01889664  0.61236393     0.05800
C94         C  0.35079383  0.03024050  0.60287117     0.03900
H95         H  0.27926966  0.00317045  0.58032124     0.09000
H96         H  0.37100095  0.03713674  0.61872628     0.07900
O97         O  0.70348369  0.99431850  0.04383064    -0.72200
O98         O  0.70605748  0.00220361  0.94436547    -0.73200
O99         O  0.70443664  0.94924905  0.98930658    -0.61800
O100        O  0.70586324  0.04715898  0.99895450    -0.70200
O101        O  0.76017753  0.04511771  0.00237764    -0.69800
O102        O  0.75887315  0.94922287  0.98887758    -0.61000
O103        O  0.76031044  0.00334284  0.94628621    -0.73500
O104        O  0.75768032  0.99112602  0.04492128    -0.72300
Cu105      Cu  0.70298412  0.99825056  0.99403969     1.04600
Cu106      Cu  0.76107265  0.99716477  0.99564467     1.04300
C107        C  0.73021270  0.99136568  0.06003151     0.94000
C108        C  0.73364101  0.00427935  0.92968123     0.93100
C109        C  0.73170267  0.93396891  0.98728847     0.85300
C110        C  0.73354554  0.06134863  0.00272310     0.91600
C111        C  0.73758485  0.99502486  0.25860571     0.81000
N112        N  0.77026372  0.99635229  0.26371634    -0.77300
C113        C  0.79138150  0.99454846  0.23850562     0.83400
N114        N  0.77985794  0.99139885  0.20754060    -0.77300
C115        C  0.74711916  0.98993576  0.20152703     0.83500
N116        N  0.72562587  0.99184159  0.22730208    -0.79000
C117        C  0.73570684  0.25443384  0.01163047     0.81000
N118        N  0.73002825  0.22185624  0.01245304    -0.77300
C119        C  0.75500116  0.20026769  0.01349198     0.83400
N120        N  0.78629435  0.21133534  0.01476272    -0.77300
C121        C  0.79284975  0.24394474  0.01391357     0.83500
N122        N  0.76736512  0.26580563  0.01166681    -0.79000
O123        O  0.96057845  0.01545801  0.71237661    -0.72200
O124        O  0.06013689  0.01396538  0.71236089    -0.73200
O125        O  0.00971957  0.96598036  0.70903684    -0.61800
O126        O  0.01168396  0.06495204  0.71337340    -0.70200
O127        O  0.01427738  0.06395665  0.76753303    -0.69800
O128        O  0.00753077  0.96470173  0.76322581    -0.61000
O129        O  0.05846289  0.01135816  0.76646789    -0.73500
O130        O  0.96247316  0.01748998  0.76630951    -0.72300
Cu131      Cu  0.01045077  0.01536433  0.70976711     1.04600
Cu132      Cu  0.01060063  0.01442805  0.76762975     1.04300
C133        C  0.94581484  0.01557978  0.74002170     0.94000
C134        C  0.07471537  0.01130417  0.74001307     0.93100
C135        C  0.00829903  0.94976536  0.73545454     0.85300
C136        C  0.01433071  0.08003335  0.74087006     0.91600
C137        C  0.02537652  0.27799360  0.75232079     0.81000
N138        N  0.01743049  0.28249217  0.78411203    -0.77300
C139        C  0.01190406  0.25679871  0.80373984     0.83400
N140        N  0.01423004  0.22602772  0.79123167    -0.77300
C141        C  0.02098126  0.22074689  0.75915903     0.83500
N142        N  0.02634501  0.24692214  0.73923368    -0.79000
C143        C  0.26891345  0.00447336  0.74300530     0.81000
N144        N  0.23638181  0.00256908  0.73694564    -0.77300
C145        C  0.21443397  0.00557865  0.76131590     0.83400
N146        N  0.22508362  0.00932541  0.79247294    -0.77300
C147        C  0.25751525  0.01057640  0.79974922     0.83500
N148        N  0.27987546  0.00866385  0.77466868    -0.79000
O149        O  0.23087942  0.04483950  0.00800962    -0.72200
O150        O  0.23333703  0.94854167  0.00114989    -0.73200
O151        O  0.22943436  0.99372144  0.05446620    -0.61800
O152        O  0.23648164  0.00032110  0.95536927    -0.70200
O153        O  0.29060537  0.99956988  0.95934978    -0.69800
O154        O  0.28318514  0.99639342  0.05890634    -0.61000
O155        O  0.28745171  0.94829948  0.00670846    -0.73500
O156        O  0.28522467  0.04681562  0.01044747    -0.72300
Cu157      Cu  0.23075551  0.99668920  0.00474108     1.04600
Cu158      Cu  0.28857615  0.99769039  0.00915872     1.04300
C159        C  0.25742485  0.06114844  0.00877406     0.94000
C160        C  0.26035688  0.93305510  0.00248635     0.93100
C161        C  0.25507771  0.99481865  0.07266601     0.85300
C162        C  0.26470442  0.00163720  0.94174067     0.91600
O163        O  0.94285821  0.99231958  0.29204542    -0.72200
O164        O  0.04079650  0.98436225  0.29987482    -0.73200
O165        O  0.99539211  0.03832999  0.29846290    -0.61800
O166        O  0.98794067  0.93882099  0.29443886    -0.70200
O167        O  0.98990548  0.94031111  0.24031602    -0.69800
O168        O  0.00158717  0.03910065  0.24462038    -0.61000
O169        O  0.04360271  0.98364952  0.24561094    -0.73500
O170        O  0.94793887  0.99540176  0.23808752    -0.72300
Cu171      Cu  0.99160030  0.98849616  0.29819356     1.04600
Cu172      Cu  0.99592089  0.98972659  0.24037514     1.04300
C173        C  0.93014891  0.99501655  0.26357943     0.94000
C174        C  0.05741065  0.98191842  0.27349757     0.93100
C175        C  0.99986427  0.05435729  0.27215168     0.85300
C176        C  0.98744334  0.92390721  0.26669377     0.91600
O177        O  0.00178936  0.28065988  0.05849096    -0.72200
O178        O  0.99751542  0.29110080  0.96120689    -0.73200
O179        O  0.95020422  0.28572041  0.01166700    -0.61800
O180        O  0.04995693  0.28753652  0.00803875    -0.70200
O181        O  0.05095504  0.23386268  0.99914322    -0.69800
O182        O  0.95103086  0.23154796  0.00708791    -0.61000
O183        O  0.99711820  0.23698517  0.95558291    -0.73500
O184        O  0.00545058  0.22711174  0.05064731    -0.72300
Cu185      Cu  0.99989256  0.28819598  0.01009605     1.04600
Cu186      Cu  0.00114313  0.23056295  0.00293511     1.04300
C187        C  0.00425549  0.25177706  0.06995097     0.94000
C188        C  0.99634470  0.26534819  0.94309299     0.93100
C189        C  0.93491987  0.25840814  0.01013202     0.85300
C190        C  0.06615887  0.26116926  0.00259662     0.91600
C191        C  0.99622171  0.25261981  0.26185431     0.81000
N192        N  0.99921410  0.22218909  0.27559069    -0.77300
C193        C  0.00610364  0.19551329  0.25586981     0.83400
N194        N  0.01070776  0.20000715  0.22339251    -0.77300
C195        C  0.00714352  0.22981930  0.20982911     0.83500
N196        N  0.99945782  0.25566717  0.22917626    -0.79000
C197        C  0.25063108  0.98493846  0.27272089     0.81000
N198        N  0.21892635  0.97823626  0.27940092    -0.77300
C199        C  0.19638005  0.97596761  0.25540254     0.83400
N200        N  0.20570720  0.97944618  0.22395814    -0.77300
C201        C  0.23698332  0.98753035  0.21609606     0.83500
N202        N  0.25976998  0.99050209  0.24088552    -0.79000
C203        C  0.26512271  0.25021263  0.99864893     0.81000
N204        N  0.26694075  0.21783448  0.99142229    -0.77300
C205        C  0.24006357  0.19907418  0.98777519     0.83400
N206        N  0.21026626  0.21337837  0.98778369    -0.77300
C207        C  0.20709579  0.24599899  0.99343399     0.83500
N208        N  0.23458445  0.26455023  0.99992418    -0.79000
O209        O  0.94720043  0.70730046  0.99399276    -0.72200
O210        O  0.04739872  0.70789913  0.99395652    -0.73200
O211        O  0.99722921  0.70054419  0.04268690    -0.61800
O212        O  0.99714691  0.71528538  0.94495365    -0.70200
O213        O  0.99858972  0.76895635  0.95449706    -0.69800
O214        O  0.99613739  0.75456041  0.05011476    -0.61000
O215        O  0.04707674  0.76137944  0.00357019    -0.73500
O216        O  0.94772529  0.76103313  0.00110847    -0.72300
Cu217      Cu  0.99726092  0.70578802  0.99349867     1.04600
Cu218      Cu  0.99734450  0.76322113  0.00255364     1.04300
C219        C  0.93155797  0.73425323  0.99804987     0.94000
C220        C  0.06307914  0.73468819  0.99918877     0.93100
C221        C  0.99629366  0.72572282  0.06160007     0.85300
C222        C  0.99836611  0.74470108  0.93458724     0.91600
C223        C  0.99463305  0.72570066  0.25419542     0.81000
N224        N  0.99726233  0.72010002  0.22162609    -0.77300
C225        C  0.99415729  0.74467513  0.20018445     0.83400
N226        N  0.98852313  0.77560874  0.21122077    -0.77300
C227        C  0.98622138  0.78228589  0.24384735     0.83500
N228        N  0.98896742  0.75699093  0.26553814    -0.79000
C229        C  0.26280907  0.73925824  0.99151763     0.81000
N230        N  0.23128148  0.72760122  0.99414531    -0.77300
C231        C  0.20567872  0.74937199  0.99731620     0.83400
N232        N  0.21204000  0.78201712  0.99715971    -0.77300
C233        C  0.24308024  0.79330610  0.99523832     0.83500
N234        N  0.26813621  0.77197400  0.99285739    -0.79000
C235        C  0.01973635  0.75262090  0.74576819     0.81000
N236        N  0.01417487  0.74873263  0.77807551    -0.77300
C237        C  0.00693921  0.77461207  0.79761586     0.83400
N238        N  0.00532484  0.80502400  0.78493156    -0.77300
C239        C  0.01061352  0.80966180  0.75253653     0.83500
N240        N  0.01782464  0.78330730  0.73266981    -0.79000
C241        C  0.75062390  0.99712368  0.73188690     0.81000
N242        N  0.78360355  0.99778611  0.72834339    -0.77300
C243        C  0.80359044  0.00457069  0.75394539     0.83400
N244        N  0.79018387  0.00960117  0.78390056    -0.77300
C245        C  0.75735338  0.00755428  0.78882928     0.83500
N246        N  0.73722799  0.00184091  0.76238031    -0.79000
C247        C  0.73232488  0.74025314  0.98934031     0.81000
N248        N  0.72611645  0.77260936  0.98638748    -0.77300
C249        C  0.75075556  0.79455882  0.98578487     0.83400
N250        N  0.78213990  0.78407750  0.98810938    -0.77300
C251        C  0.78921902  0.75180527  0.99201134     0.83500
N252        N  0.76403258  0.72952331  0.99229071    -0.79000
N253        N  0.02779335  0.46249647  0.69072753    -0.26500
N254        N  0.02130896  0.44748077  0.66255630    -0.34400
C255        C  0.02124194  0.41500672  0.66627593     0.01800
C256        C  0.02769794  0.40820997  0.69840480     0.07800
C257        C  0.03205268  0.43891127  0.71349323    -0.05300
H258        H  0.01608833  0.39750275  0.64686338     0.08500
H259        H  0.03706096  0.44363560  0.73912500     0.09700
Cu260      Cu  0.01012844  0.46861602  0.61914865     0.44200
Cu261      Cu  0.02887193  0.51491282  0.69444206     0.42000
Cu262      Cu  0.00818326  0.55203140  0.61429146     0.43900
N263        N  0.99730568  0.49061678  0.57661549    -0.33900
N264        N  0.99641965  0.52275425  0.57454791    -0.28200
C265        C  0.98919839  0.53086630  0.54364874    -0.04300
C266        C  0.98551260  0.50214715  0.52557873     0.07900
C267        C  0.99071825  0.47708643  0.54726508     0.01700
H268        H  0.98806113  0.55563113  0.53483037     0.09400
H269        H  0.99107108  0.45092718  0.54189976     0.08500
N270        N  0.02024481  0.57838144  0.65596040    -0.35400
N271        N  0.02706996  0.56646886  0.68519942    -0.27600
C272        C  0.03142780  0.59229970  0.70599857    -0.02800
C273        C  0.02697952  0.62144891  0.68888776     0.05800
C274        C  0.02033874  0.61123212  0.65728567     0.03900
H275        H  0.03650840  0.59012616  0.73191720     0.09000
H276        H  0.01521891  0.62665182  0.63656055     0.07900
N277        N  0.98933402  0.43920771  0.32436213    -0.26500
N278        N  0.98658049  0.42570134  0.35354998    -0.34400
C279        C  0.98704386  0.39288839  0.35044339     0.01800
C280        C  0.99007362  0.38456644  0.31783612     0.07800
C281        C  0.99130004  0.41456984  0.30183149    -0.05300
H282        H  0.98508780  0.37615442  0.37065234     0.08500
H283        H  0.99373636  0.41811601  0.27576755     0.09700
Cu284      Cu  0.98212526  0.45029567  0.39787513     0.44200
Cu285      Cu  0.99066061  0.49120344  0.31750575     0.42000
Cu286      Cu  0.98262348  0.53545621  0.39473355     0.43900
N287        N  0.97990495  0.47922122  0.43968133    -0.33900
N288        N  0.98005780  0.51143968  0.43801256    -0.28200
C289        C  0.98073605  0.52445677  0.46824096    -0.04300
C290        C  0.98112532  0.49912581  0.49014611     0.07900
C291        C  0.98049923  0.47064538  0.47131665     0.01700
H292        H  0.98231990  0.55055335  0.47373845     0.09400
H293        H  0.98177432  0.44578915  0.47981612     0.08500
N294        N  0.98656708  0.55830053  0.35090901    -0.35400
N295        N  0.99005430  0.54359067  0.32210383    -0.27600
C296        C  0.99245857  0.56736959  0.29936177    -0.02800
C297        C  0.98991894  0.59799379  0.31500188     0.05800
C298        C  0.98641791  0.59091578  0.34755984     0.03900
H299        H  0.99566094  0.56286215  0.27344560     0.09000
H300        H  0.98435523  0.60828784  0.36762909     0.07900
C301        C  0.02524181  0.72222118  0.72582803    -0.04600
C302        C  0.00073687  0.71089672  0.70411639    -0.01700
C303        C  0.00104234  0.67804640  0.69248057     0.03300
C304        C  0.02679808  0.65636642  0.70124729    -0.04600
C305        C  0.05258335  0.66858587  0.72111294    -0.01700
C306        C  0.05136632  0.70096268  0.73398173     0.03300
C307        C  0.97399564  0.73252387  0.69535140     0.37900
C308        C  0.08086231  0.64818837  0.72772061     0.37900
C309        C  0.07676187  0.71226825  0.75634911     0.36300
C310        C  0.97350797  0.66619960  0.67318948     0.36300
N311        N  0.09685161  0.72125282  0.77438300    -0.38500
N312        N  0.95142526  0.65682626  0.65790511    -0.38500
N313        N  0.10361560  0.63207990  0.73274891    -0.37900
N314        N  0.95275944  0.74987315  0.68832265    -0.37900
C315        C  0.99199123  0.63179274  0.30129019    -0.04600
C316        C  0.96710734  0.65527061  0.30781185    -0.01700
C317        C  0.96927068  0.68736398  0.29511148     0.03300
C318        C  0.99623654  0.69632967  0.27564256    -0.04600
C319        C  0.02213565  0.67355747  0.27119182    -0.01700
C320        C  0.02005028  0.64161053  0.28394733     0.03300
C321        C  0.93856613  0.64612547  0.32664778     0.37900
C322        C  0.05131151  0.68306695  0.25353740     0.37900
C323        C  0.04741667  0.61920549  0.28020120     0.36300
C324        C  0.94303941  0.71064822  0.30094752     0.36300
N325        N  0.06936156  0.60143812  0.27745738    -0.38500
N326        N  0.92217581  0.72927840  0.30577357    -0.38500
N327        N  0.07477799  0.69039516  0.23963949    -0.37900
N328        N  0.91583131  0.63887341  0.34176042    -0.37900
C329        C  0.10011673  0.73502041  0.00057953    -0.04600
C330        C  0.11667151  0.75359113  0.02507416    -0.01700
C331        C  0.15134709  0.75488513  0.02595238     0.03300
C332        C  0.17038817  0.73934016  0.00130181    -0.04600
C333        C  0.15409930  0.71978814  0.97753872    -0.01700
C334        C  0.11927464  0.71740363  0.97731853     0.03300
C335        C  0.09815791  0.77184514  0.04948918     0.37900
C336        C  0.17304532  0.70348843  0.95222196     0.37900
C337        C  0.10315836  0.69863867  0.95158681     0.36300
C338        C  0.16760840  0.77230917  0.05261715     0.36300
N339        N  0.09026857  0.68377060  0.93096891    -0.38500
N340        N  0.18059571  0.78600617  0.07396663    -0.38500
N341        N  0.18823655  0.69046083  0.93204779    -0.37900
N342        N  0.08350596  0.78657963  0.06890692    -0.37900
C343        C  0.99461827  0.73691754  0.16490824    -0.04600
C344        C  0.96486123  0.73317012  0.14765075    -0.01700
C345        C  0.96525561  0.72607990  0.11385296     0.03300
C346        C  0.99535666  0.72257470  0.09739308    -0.04600
C347        C  0.02488938  0.72288225  0.11527476    -0.01700
C348        C  0.02461549  0.73063401  0.14894920     0.03300
C349        C  0.93390832  0.73622097  0.16475952     0.37900
C350        C  0.05539571  0.71469490  0.09905513     0.37900
C351        C  0.05524085  0.73320637  0.16685450     0.36300
C352        C  0.93475155  0.72152106  0.09613491     0.36300
N353        N  0.07982644  0.73548077  0.18086498    -0.38500
N354        N  0.91029617  0.71718162  0.08236800    -0.38500
N355        N  0.07966553  0.70738932  0.08635894    -0.37900
N356        N  0.90923174  0.73839538  0.17847300    -0.37900
C357        C  0.89445192  0.73503752  0.99970462    -0.04600
C358        C  0.87448341  0.71250450  0.98175580    -0.01700
C359        C  0.83991030  0.71692488  0.97994573     0.03300
C360        C  0.82451022  0.74256503  0.99769534    -0.04600
C361        C  0.84398599  0.76220119  0.01894978    -0.01700
C362        C  0.87850119  0.75910524  0.01935830     0.03300
C363        C  0.88915886  0.68479119  0.96482090     0.37900
C364        C  0.82838598  0.78543824  0.04117091     0.37900
C365        C  0.89735260  0.78036559  0.04108954     0.36300
C366        C  0.82045428  0.69598583  0.95855695     0.36300
N367        N  0.91228720  0.79724428  0.05854524    -0.38500
N368        N  0.80492450  0.67934831  0.94140148    -0.38500
N369        N  0.81595293  0.80382156  0.05899746    -0.37900
N370        N  0.90055863  0.66225549  0.95167770    -0.37900
C371        C  0.00051977  0.75148288  0.89926231    -0.04600
C372        C  0.02791218  0.76875940  0.88735006    -0.01700
C373        C  0.02905343  0.77815410  0.85437942     0.03300
C374        C  0.00333477  0.76937835  0.83295979    -0.04600
C375        C  0.97592108  0.75220719  0.84474105    -0.01700
C376        C  0.97447126  0.74328261  0.87789416     0.03300
C377        C  0.05564895  0.77553919  0.90869628     0.37900
C378        C  0.94891771  0.74443992  0.82278872     0.37900
C379        C  0.94593237  0.72625900  0.89000815     0.36300
C380        C  0.05698173  0.79629719  0.84228769     0.36300
N381        N  0.92297530  0.71267892  0.89929160    -0.38500
N382        N  0.07910323  0.81094727  0.83258580    -0.38500
N383        N  0.92738683  0.73850593  0.80520022    -0.37900
N384        N  0.07790261  0.78062663  0.92562227    -0.37900
C385        C  0.99180813  0.28384936  0.28094165    -0.04600
C386        C  0.01706356  0.29569429  0.30161158    -0.01700
C387        C  0.01649807  0.32849548  0.31354276     0.03300
C388        C  0.99120713  0.35027117  0.30414718    -0.04600
C389        C  0.96604256  0.33849501  0.28334376    -0.01700
C390        C  0.96621081  0.30554077  0.27202121     0.03300
C391        C  0.04508415  0.27498639  0.30834719     0.37900
C392        C  0.93981645  0.36028687  0.27357193     0.37900
C393        C  0.94033745  0.29412374  0.25024731     0.36300
C394        C  0.04303155  0.34036662  0.33415905     0.36300
N395        N  0.91985150  0.28502181  0.23272563    -0.38500
N396        N  0.06425187  0.34987986  0.35054199    -0.38500
N397        N  0.91892781  0.37766867  0.26565820    -0.37900
N398        N  0.06758025  0.25850652  0.31331070    -0.37900
C399        C  0.17278062  0.25896026  0.99466826    -0.04600
C400        C  0.15265902  0.25552680  0.96655814    -0.01700
C401        C  0.11806212  0.25722137  0.96904200     0.03300
C402        C  0.10289017  0.26223849  0.99974081    -0.04600
C403        C  0.12305886  0.26716898  0.02765367    -0.01700
C404        C  0.15776916  0.26584025  0.02506282     0.03300
C405        C  0.16770327  0.24893061  0.93503632     0.37900
C406        C  0.10817637  0.27099668  0.05955738     0.37900
C407        C  0.17805067  0.26936807  0.05407072     0.36300
C408        C  0.09806192  0.25278604  0.93995338     0.36300
N409        N  0.19439656  0.27221476  0.07711268    -0.38500
N410        N  0.08237735  0.24905605  0.91657772    -0.38500
N411        N  0.09670246  0.27358307  0.08528663    -0.37900
N412        N  0.17980095  0.24360145  0.90996371    -0.37900
C413        C  0.00554409  0.24617924  0.10580029    -0.04600
C414        C  0.01921870  0.26994036  0.12735830    -0.01700
C415        C  0.02153380  0.26363896  0.16104854     0.03300
C416        C  0.00891960  0.23415538  0.17387952    -0.04600
C417        C  0.99571680  0.21018207  0.15232270    -0.01700
C418        C  0.99374550  0.21624724  0.11861656     0.03300
C419        C  0.03112564  0.30102981  0.11525981     0.37900
C420        C  0.98310776  0.17939382  0.16454362     0.37900
C421        C  0.97773409  0.19200606  0.09762804     0.36300
C422        C  0.03797682  0.28731822  0.18229025     0.36300
N423        N  0.96481872  0.17274073  0.08103710    -0.38500
N424        N  0.05112347  0.30621558  0.19911614    -0.38500
N425        N  0.97326521  0.15468004  0.17398459    -0.37900
N426        N  0.04047351  0.32594385  0.10583768    -0.37900
C427        C  0.09315550  0.97709710  0.27429602    -0.04600
C428        C  0.10705802  0.95123537  0.25568754    -0.01700
C429        C  0.14104064  0.95033005  0.25024359     0.03300
C430        C  0.16126271  0.97501819  0.26375801    -0.04600
C431        C  0.14759809  0.99965564  0.28425412    -0.01700
C432        C  0.11354967  0.00055865  0.28965014     0.03300
C433        C  0.08630129  0.92550012  0.24215560     0.37900
C434        C  0.16817963  0.02536672  0.29807267     0.37900
C435        C  0.09935569  0.02675466  0.30933779     0.36300
C436        C  0.15520497  0.92404642  0.23066574     0.36300
N437        N  0.08801465  0.04766342  0.32499122    -0.38500
N438        N  0.16653518  0.90310877  0.21504898    -0.38500
N439        N  0.18460794  0.04588103  0.30902395    -0.37900
N440        N  0.06974616  0.90494018  0.23149311    -0.37900
C441        C  0.00727777  0.16075008  0.26765533    -0.04600
C442        C  0.97973423  0.14602254  0.28243711    -0.01700
C443        C  0.97759952  0.11133415  0.28486380     0.03300
C444        C  0.00330326  0.09099668  0.27325048    -0.04600
C445        C  0.03183079  0.10586380  0.26087228    -0.01700
C446        C  0.03366066  0.14030303  0.25771018     0.03300
C447        C  0.95260469  0.16631873  0.29320268     0.37900
C448        C  0.05946525  0.08562173  0.25117805     0.37900
C449        C  0.06254767  0.15464676  0.24304310     0.36300
C450        C  0.94791337  0.09645405  0.29715504     0.36300
N451        N  0.08542420  0.16603337  0.23101210    -0.38500
N452        N  0.92415111  0.08448691  0.30670083    -0.38500
N453        N  0.08161298  0.06958106  0.24355565    -0.37900
N454        N  0.93096841  0.18250651  0.30192691    -0.37900
C455        C  0.98405845  0.88723820  0.26474511    -0.04600
C456        C  0.00482076  0.86645995  0.28300146    -0.01700
C457        C  0.00372186  0.83188907  0.27832746     0.03300
C458        C  0.98252457  0.81762346  0.25460214    -0.04600
C459        C  0.96031779  0.83843225  0.23794377    -0.01700
C460        C  0.96076475  0.87278250  0.24338716     0.03300
C461        C  0.02878733  0.88072333  0.30523258     0.37900
C462        C  0.93677305  0.82465310  0.21494003     0.37900
C463        C  0.93660661  0.89330816  0.22746429     0.36300
C464        C  0.02570461  0.81125724  0.29684127     0.36300
N465        N  0.91717728  0.90969627  0.21506930    -0.38500
N466        N  0.04311966  0.79478095  0.31178763    -0.38500
N467        N  0.91797745  0.81404970  0.19638551    -0.37900
N468        N  0.04801585  0.89215966  0.32283522    -0.37900
C469        C  0.24345818  0.16344334  0.99213570    -0.04600
C470        C  0.22674823  0.14797644  0.01792090    -0.01700
C471        C  0.23317757  0.11498098  0.02482584     0.03300
C472        C  0.25530627  0.09689365  0.00528402    -0.04600
C473        C  0.27178764  0.11219127  0.97930909    -0.01700
C474        C  0.26632351  0.14556952  0.97314617     0.03300
C475        C  0.20359850  0.16609745  0.03812019     0.37900
C476        C  0.29302249  0.09325088  0.95779082     0.37900
C477        C  0.28371057  0.16129836  0.94672836     0.36300
C478        C  0.21776938  0.10000586  0.05282443     0.36300
N479        N  0.29772757  0.17377423  0.92572780    -0.38500
N480        N  0.20556927  0.08861658  0.07548303    -0.30700
N481        N  0.30973022  0.07809408  0.94048939    -0.37900
N482        N  0.18495450  0.18043234  0.05406945    -0.37900
C483        C  0.25192927  0.99489182  0.10990407    -0.04600
C484        C  0.22263279  0.00595190  0.12521687    -0.01700
C485        C  0.21959654  0.00669561  0.15974711     0.03300
C486        C  0.24439608  0.99357225  0.18026729    -0.04600
C487        C  0.27402543  0.98340452  0.16537294    -0.01700
C488        C  0.27802098  0.98461562  0.13072715     0.03300
C489        C  0.19480277  0.01648765  0.10581231     0.37900
C490        C  0.30028847  0.97070459  0.18551492     0.37900
C491        C  0.30896482  0.97409179  0.11683609     0.36300
C492        C  0.19078702  0.02208845  0.17408263     0.36300
N493        N  0.33388881  0.96584342  0.10611106    -0.38500
N494        N  0.16785319  0.03441820  0.18539783    -0.38500
N495        N  0.32128740  0.96063379  0.20159623    -0.37900
N496        N  0.17220000  0.02442106  0.09069127    -0.37900
C497        C  0.24971487  0.82876239  0.99577996    -0.04600
C498        C  0.23643549  0.84873180  0.97123154    -0.01700
C499        C  0.24114531  0.88283068  0.97275490     0.03300
C500        C  0.25943883  0.89706133  0.99874186    -0.04600
C501        C  0.27413602  0.87685695  0.02236719    -0.01700
C502        C  0.26931748  0.84270810  0.02084415     0.03300
C503        C  0.21860530  0.83408283  0.94395612     0.37900
C504        C  0.29255271  0.89122008  0.04933979     0.37900
C505        C  0.28342024  0.82206175  0.04585321     0.36300
C506        C  0.22720709  0.90327017  0.94743818     0.36300
N507        N  0.29467185  0.80554545  0.06574381    -0.38500
N508        N  0.21600464  0.91961023  0.92736888    -0.38500
N509        N  0.30720018  0.90248978  0.07098802    -0.37900
N510        N  0.20457728  0.82235982  0.92211872    -0.37900
C511        C  0.26648646  0.01322209  0.83552134    -0.04600
C512        C  0.24864593  0.03520126  0.85591627    -0.01700
C513        C  0.24862450  0.03173413  0.89033836     0.03300
C514        C  0.26716154  0.00673409  0.90532577    -0.04600
C515        C  0.28784597  0.98709735  0.88527535    -0.01700
C516        C  0.28733502  0.99016488  0.85059850     0.03300
C517        C  0.23000574  0.06160557  0.84135421     0.37900
C518        C  0.30851412  0.96254507  0.90014997     0.37900
C519        C  0.30709180  0.96847575  0.83044449     0.36300
C520        C  0.22967868  0.05439620  0.91036687     0.36300
N521        N  0.32298669  0.95124858  0.81434016    -0.38500
N522        N  0.21458818  0.07255182  0.92624522    -0.38500
N523        N  0.32508099  0.94302498  0.91209959    -0.37900
N524        N  0.21519808  0.08266553  0.82972328    -0.37900
C525        C  0.02877925  0.30807831  0.73264838    -0.04600
C526        C  0.05659758  0.32835882  0.73708945    -0.01700
C527        C  0.05605591  0.36139133  0.72690215     0.03300
C528        C  0.02767082  0.37443868  0.71212822    -0.04600
C529        C  0.00020361  0.35371382  0.70686292    -0.01700
C530        C  0.00082648  0.32081040  0.71706554     0.03300
C531        C  0.08579120  0.31516558  0.75234595     0.37900
C532        C  0.97059089  0.36649088  0.69201418     0.37900
C533        C  0.97199155  0.30037431  0.71295747     0.36300
C534        C  0.08493454  0.38172904  0.73099025     0.36300
N535        N  0.94896998  0.28410635  0.70973967    -0.38500
N536        N  0.10797293  0.39800211  0.73415348    -0.38500
N537        N  0.94692215  0.37650976  0.68012461    -0.37900
N538        N  0.10917606  0.30464333  0.76436126    -0.37900
C539        C  0.00438959  0.26226604  0.83883544    -0.04600
C540        C  0.98115407  0.24221497  0.85456170    -0.01700
C541        C  0.97683399  0.24480995  0.88858323     0.03300
C542        C  0.99551777  0.26762145  0.90711413    -0.04600
C543        C  0.01645748  0.28967991  0.89110319    -0.01700
C544        C  0.02105694  0.28692206  0.85711297     0.03300
C545        C  0.96139499  0.21895642  0.83588960     0.37900
C546        C  0.03529275  0.31371273  0.90975622     0.37900
C547        C  0.04452418  0.30844556  0.84166666     0.36300
C548        C  0.95317418  0.22377015  0.90450311     0.36300
N549        N  0.06319692  0.32588510  0.82970527    -0.38500
N550        N  0.93437845  0.20697536  0.91718630    -0.38500
N551        N  0.05040616  0.33277135  0.92460574    -0.37900
N552        N  0.94563614  0.20033543  0.82115302    -0.37900
C553        C  0.11073588  0.00770860  0.74250585    -0.04600
C554        C  0.13189506  0.02798103  0.72451506    -0.01700
C555        C  0.16602491  0.02642531  0.72973925     0.03300
C556        C  0.17899400  0.00552153  0.75390569    -0.04600
C557        C  0.15790026  0.98503627  0.77161204    -0.01700
C558        C  0.12402311  0.98567257  0.76556519     0.03300
C559        C  0.11853888  0.05218816  0.70248566     0.37900
C560        C  0.17102689  0.96306544  0.79606901     0.37900
C561        C  0.10293804  0.96339856  0.78325778     0.36300
C562        C  0.18757407  0.04759381  0.71134537     0.36300
N563        N  0.08624289  0.94563942  0.79742587    -0.38500
N564        N  0.20480591  0.06433607  0.69659412    -0.38500
N565        N  0.18149517  0.94578769  0.81573367    -0.37900
N566        N  0.10789017  0.07175116  0.68519896    -0.37900
C567        C  0.01786723  0.11650360  0.74185339    -0.04600
C568        C  0.99329133  0.13681989  0.72851153    -0.01700
C569        C  0.99569376  0.17138294  0.73139363     0.03300
C570        C  0.02272423  0.18599577  0.74757614    -0.04600
C571        C  0.04802943  0.16570532  0.75953055    -0.01700
C572        C  0.04568042  0.13119893  0.75664488     0.03300
C573        C  0.96435475  0.12210121  0.71383951     0.37900
C574        C  0.07612187  0.18048861  0.77580524     0.37900
C575        C  0.07191960  0.11080672  0.76906125     0.36300
C576        C  0.96928329  0.19178195  0.71949956     0.36300
N577        N  0.09289691  0.09459808  0.77896059    -0.38500
N578        N  0.94801388  0.20780608  0.70995507    -0.38500
N579        N  0.09842650  0.19244918  0.78879652    -0.37900
N580        N  0.94117429  0.11030751  0.70235435    -0.37900
C581        C  0.00801624  0.91324414  0.73399066    -0.04600
C582        C  0.03742206  0.89559716  0.72905535    -0.01700
C583        C  0.03812997  0.86116860  0.73302302     0.03300
C584        C  0.00908402  0.84394019  0.74031471    -0.04600
C585        C  0.97912972  0.86134154  0.74185164    -0.01700
C586        C  0.97862077  0.89582906  0.73880732     0.03300
C587        C  0.06706345  0.91295591  0.72036458     0.37900
C588        C  0.94882794  0.84373800  0.74734154     0.37900
C589        C  0.94778081  0.91340089  0.74030852     0.36300
C590        C  0.06912605  0.84387406  0.73201078     0.36300
N591        N  0.92306011  0.92725448  0.74111342    -0.38500
N592        N  0.09393264  0.83015259  0.73151996    -0.38500
N593        N  0.92462567  0.82970046  0.75163736    -0.37900
N594        N  0.09061495  0.92672852  0.71293425    -0.37900
C595        C  0.83991020  0.00630772  0.74936785    -0.04600
C596        C  0.86108876  0.99507555  0.77422535    -0.01700
C597        C  0.89529973  0.99810552  0.77105004     0.03300
C598        C  0.90928668  0.01213451  0.74258975    -0.04600
C599        C  0.88811130  0.02196753  0.71702447    -0.01700
C600        C  0.85372983  0.01914875  0.72039249     0.03300
C601        C  0.84793858  0.97890878  0.80282399     0.37900
C602        C  0.90134308  0.03561974  0.68725590     0.37900
C603        C  0.83279021  0.03017012  0.69394882     0.36300
C604        C  0.91580226  0.98533006  0.79709783     0.36300
N605        N  0.81624062  0.03873569  0.67266912    -0.38500
N606        N  0.93189419  0.97512760  0.81798163    -0.38500
N607        N  0.91169028  0.04635316  0.66335566    -0.37900
N608        N  0.83756617  0.96604315  0.82562157    -0.37900
C609        C  0.82817460  0.25417854  0.01450991    -0.04600
C610        C  0.84743764  0.24843896  0.04269521    -0.01700
C611        C  0.88212695  0.25010866  0.04135996     0.03300
C612        C  0.89814756  0.25801520  0.01191237    -0.04600
C613        C  0.87880955  0.26615526  0.98437468    -0.01700
C614        C  0.84408110  0.26387513  0.98555718     0.03300
C615        C  0.83142021  0.24133920  0.07338879     0.37900
C616        C  0.89467354  0.27643692  0.95456928     0.37900
C617        C  0.82474817  0.27035664  0.95657914     0.36300
C618        C  0.90130617  0.24419065  0.07057451     0.36300
N619        N  0.80931735  0.27556154  0.93343741    -0.38500
N620        N  0.91632479  0.23972856  0.09413945    -0.38500
N621        N  0.90720251  0.28492206  0.93079404    -0.37900
N622        N  0.81873322  0.23618398  0.09805649    -0.37900
C623        C  0.82681776  0.99502652  0.24523328    -0.04600
C624        C  0.84633475  0.02078434  0.23351030    -0.01700
C625        C  0.88013116  0.02138796  0.24039135     0.03300
C626        C  0.89434811  0.99644191  0.25941525    -0.04600
C627        C  0.87468283  0.97098584  0.27161938    -0.01700
C628        C  0.84096084  0.97027268  0.26450621     0.03300
C629        C  0.83147192  0.04709310  0.21511004     0.37900
C630        C  0.88943266  0.94446414  0.28985959     0.37900
C631        C  0.82110261  0.94330178  0.27597412     0.36300
C632        C  0.90024042  0.04780821  0.22807596     0.36300
N633        N  0.80549104  0.92164584  0.28513502    -0.38500
N634        N  0.91632674  0.06878395  0.21817269    -0.38500
N635        N  0.90125300  0.92325775  0.30423608    -0.37900
N636        N  0.81953952  0.06811775  0.20056567    -0.37900
C637        C  0.73551393  0.09706054  0.00729967    -0.04600
C638        C  0.75316237  0.11011133  0.03419178    -0.01700
C639        C  0.75972244  0.14387773  0.03612432     0.03300
C640        C  0.74790153  0.16484007  0.01161767    -0.04600
C641        C  0.72868050  0.15192896  0.98558426    -0.01700
C642        C  0.72276521  0.11800359  0.98329655     0.03300
C643        C  0.76405357  0.08880930  0.06024549     0.37900
C644        C  0.71602142  0.17323879  0.96037324     0.37900
C645        C  0.70506222  0.10444626  0.95537723     0.36300
C646        C  0.77809149  0.15699106  0.06374414     0.36300
N647        N  0.69110188  0.09346791  0.93311691    -0.38500
N648        N  0.79278853  0.16705325  0.08592954    -0.38500
N649        N  0.70572960  0.19008078  0.94024669    -0.37900
N650        N  0.77257046  0.07189107  0.08110896    -0.37900
C651        C  0.72971603  0.98839018  0.09671426    -0.04600
C652        C  0.71458089  0.01258902  0.11678777    -0.01700
C653        C  0.71803265  0.01187691  0.15140201     0.03300
C654        C  0.73629906  0.98677953  0.16644540    -0.04600
C655        C  0.74921860  0.96125308  0.14649187    -0.01700
C656        C  0.74598903  0.96207355  0.11197851     0.03300
C657        C  0.69697408  0.03934862  0.10180805     0.37900
C658        C  0.76621614  0.93408535  0.16155860     0.37900
C659        C  0.75919339  0.93551314  0.09210343     0.36300
C660        C  0.70462588  0.03818254  0.17141270     0.36300
N661        N  0.76956843  0.91426267  0.07623026    -0.38500
N662        N  0.69405756  0.05913578  0.18754403    -0.38500
N663        N  0.77973078  0.91240195  0.17358710    -0.37900
N664        N  0.68290511  0.06075016  0.08991137    -0.37900
C665        C  0.73509704  0.00784153  0.89306265    -0.04600
C666        C  0.75363708  0.03336115  0.87925075    -0.01700
C667        C  0.75880492  0.03451765  0.84502026     0.03300
C668        C  0.74519890  0.01033310  0.82367051    -0.04600
C669        C  0.72414281  0.98652023  0.83724346    -0.01700
C670        C  0.71927427  0.98519747  0.87169004     0.03300
C671        C  0.76691711  0.05902659  0.90032132     0.37900
C672        C  0.70871495  0.96227411  0.81607147     0.37900
C673        C  0.69928013  0.95940391  0.88526145     0.36300
C674        C  0.77838151  0.06086157  0.83178960     0.36300
N675        N  0.68334583  0.93883653  0.89617859    -0.38500
N676        N  0.79410862  0.08179078  0.82125803    -0.38500
N677        N  0.69621677  0.94298212  0.79920166    -0.37900
N678        N  0.77724641  0.07964654  0.91709863    -0.37900
C679        C  0.73249323  0.89804425  0.98409362    -0.04600
C680        C  0.71726548  0.87868657  0.00791817    -0.01700
C681        C  0.72249053  0.84462118  0.00796302     0.03300
C682        C  0.74327388  0.82989933  0.98435014    -0.04600
C683        C  0.75701953  0.84911307  0.95946925    -0.01700
C684        C  0.75151450  0.88313237  0.95925739     0.03300
C685        C  0.69776157  0.89403651  0.03352793     0.37900
C686        C  0.77620727  0.83377577  0.93366887     0.37900
C687        C  0.76502751  0.90280541  0.93322979     0.36300
C688        C  0.70745452  0.82516076  0.03324268     0.36300
N689        N  0.77562710  0.91853747  0.91243822    -0.38500
N690        N  0.69506801  0.81013688  0.05355329    -0.38500
N691        N  0.79139000  0.82148316  0.91303966    -0.37900
N692        N  0.68232631  0.90639139  0.05393615    -0.37900
C693        C  0.29027097  0.00590342  0.71349389    -0.04600
C694        C  0.28987465  0.97919171  0.69101329    -0.01700
C695        C  0.29941763  0.98339231  0.65804941     0.03300
C696        C  0.30997668  0.01431667  0.64713422    -0.04600
C697        C  0.31242568  0.04052284  0.67019293    -0.01700
C698        C  0.30227220  0.03640908  0.70300554     0.03300
C699        C  0.27872766  0.94736882  0.70175101     0.37900
C700        C  0.32386944  0.07237387  0.65985532     0.37900
C701        C  0.30190229  0.06426342  0.72539293     0.36300
C702        C  0.29869314  0.95570484  0.63545953     0.36300
N703        N  0.30142670  0.08649141  0.74325127    -0.38500
N704        N  0.29815800  0.93362678  0.61740837    -0.38500
N705        N  0.33312969  0.09775237  0.65164017    -0.37900
N706        N  0.26993781  0.92195279  0.71033601    -0.37900
C707        C  0.27274323  0.98915718  0.30181672    -0.04600
C708        C  0.28826716  0.01940442  0.30845049    -0.01700
C709        C  0.30067145  0.02665810  0.34019467     0.03300
C710        C  0.29773824  0.00371805  0.36587032    -0.04600
C711        C  0.28333733  0.97294613  0.35880833    -0.01700
C712        C  0.27150883  0.96554823  0.32696856     0.03300
C713        C  0.28983971  0.04388655  0.28315235     0.37900
C714        C  0.28055143  0.94869443  0.38426122     0.37900
C715        C  0.25766505  0.93340599  0.32009104     0.36300
C716        C  0.31454729  0.05877253  0.34684499     0.36300
N717        N  0.24667946  0.90777308  0.31460046    -0.38500
N718        N  0.32554148  0.08443458  0.35215286    -0.38500
N719        N  0.27803459  0.92937256  0.40455705    -0.37900
N720        N  0.29114074  0.06339994  0.26293065    -0.37900
C721        C  0.70488482  0.99508276  0.63614639    -0.04600
C722        C  0.72267882  0.96773351  0.64729680    -0.01700
C723        C  0.73594337  0.96761796  0.67935828     0.03300
C724        C  0.73067958  0.99437819  0.70120010    -0.04600
C725        C  0.71216159  0.02136636  0.69031865    -0.01700
C726        C  0.69974639  0.02192598  0.65792020     0.03300
C727        C  0.72700961  0.93943092  0.62592764     0.37900
C728        C  0.70777777  0.04964164  0.71171280     0.37900
C729        C  0.68351505  0.05120207  0.64632774     0.36300
C730        C  0.75580195  0.94011324  0.68965247     0.36300
N731        N  0.67082190  0.07462265  0.63690740    -0.38500
N732        N  0.77190667  0.91832213  0.69774501    -0.38500
N733        N  0.70433297  0.07225539  0.72872726    -0.37900
N734        N  0.73035898  0.91680510  0.60890568    -0.37900
C735        C  0.69770854  0.99691858  0.35543369    -0.04600
C736        C  0.70541752  0.96677825  0.33998683    -0.01700
C737        C  0.71455470  0.96575595  0.30661127     0.03300
C738        C  0.71681527  0.99489836  0.28845773    -0.04600
C739        C  0.70823701  0.02494790  0.30368614    -0.01700
C740        C  0.69828780  0.02590384  0.33683331     0.03300
C741        C  0.70391932  0.93676496  0.35846739     0.37900
C742        C  0.71096749  0.05512318  0.28557930     0.37900
C743        C  0.68975749  0.05697955  0.35220517     0.36300
C744        C  0.72245716  0.93468016  0.29097686     0.36300
N745        N  0.68291673  0.08170613  0.36457062    -0.38500
N746        N  0.72855312  0.90988807  0.27836195    -0.38500
N747        N  0.71315219  0.07925695  0.27122014    -0.37900
N748        N  0.70278332  0.91284934  0.37329541    -0.37900
C749        C  0.64073129  0.29860718  0.99940467    -0.04600
C750        C  0.65297488  0.29225124  0.03108909    -0.01700
C751        C  0.68549011  0.28081408  0.03539853     0.03300
C752        C  0.70631149  0.27578543  0.00819275    -0.04600
C753        C  0.69436020  0.28280898  0.97664536    -0.01700
C754        C  0.66187075  0.29409259  0.97222336     0.03300
C755        C  0.63228546  0.29777329  0.05938468     0.37900
C756        C  0.71497770  0.27660810  0.94840376     0.37900
C757        C  0.64971601  0.29925180  0.93930214     0.36300
C758        C  0.69738272  0.27330091  0.06790687     0.36300
N759        N  0.64003950  0.30333585  0.91303380    -0.38500
N760        N  0.70692596  0.26731303  0.09382898    -0.38500
N761        N  0.73127220  0.27159104  0.92578166    -0.37900
N762        N  0.61577418  0.30219164  0.08197446    -0.37900
C763        C  0.36096185  0.29875455  0.00257463    -0.04600
C764        C  0.33176599  0.31783986  0.00186038    -0.01700
C765        C  0.30039084  0.30264282  0.00086212     0.03300
C766        C  0.29733604  0.26826569  0.00416133    -0.04600
C767        C  0.32668913  0.25006882  0.01002830    -0.01700
C768        C  0.35782157  0.26454807  0.00619014     0.03300
C769        C  0.33361884  0.35331720  0.00251295     0.37900
C770        C  0.32570694  0.21626157  0.02076369     0.37900
C771        C  0.38621928  0.24328479  0.00322171     0.36300
C772        C  0.27158429  0.32267439  0.99558012     0.36300
N773        N  0.40859394  0.22607080  0.00032673    -0.38500
N774        N  0.24867368  0.33874949  0.99116289    -0.38500
N775        N  0.32537167  0.18938008  0.02942324    -0.37900
N776        N  0.33479063  0.38164705  0.00318439    -0.37900
C777        C  0.63758037  0.69489449  0.98606402    -0.04600
C778        C  0.65809012  0.69406284  0.95811987    -0.01700
C779        C  0.69067781  0.70581483  0.95998371     0.03300
C780        C  0.70332834  0.71825231  0.98977963    -0.04600
C781        C  0.68336802  0.71792749  0.01793624    -0.01700
C782        C  0.65054841  0.70679827  0.01603678     0.03300
C783        C  0.64511529  0.68286749  0.92684660     0.37900
C784        C  0.69673394  0.72943426  0.04892048     0.37900
C785        C  0.63018044  0.70769270  0.04499829     0.36300
C786        C  0.71087685  0.70642674  0.93086249     0.36300
N787        N  0.61393862  0.70864750  0.06813523    -0.38500
N788        N  0.72704674  0.70692125  0.90767717    -0.38500
N789        N  0.70764092  0.73833713  0.07364125    -0.37900
N790        N  0.63475242  0.67406214  0.90185823    -0.37900
C791        C  0.35704186  0.69057938  0.99002195    -0.04600
C792        C  0.34866787  0.71326876  0.96567963    -0.01700
C793        C  0.31684485  0.72690326  0.96450934     0.03300
C794        C  0.29263247  0.71801447  0.98767293    -0.04600
C795        C  0.30035972  0.69363105  0.01065272    -0.01700
C796        C  0.33239623  0.68003874  0.01185909     0.03300
C797        C  0.37267765  0.72209221  0.94122203     0.37900
C798        C  0.27587306  0.68363542  0.03407518     0.37900
C799        C  0.34037317  0.65613613  0.03653791     0.36300
C800        C  0.30916085  0.75052390  0.93937198     0.36300
N801        N  0.34672939  0.63711680  0.05630918    -0.38500
N802        N  0.30316986  0.76950776  0.91945185    -0.38500
N803        N  0.25621969  0.67560777  0.05266180    -0.37900
N804        N  0.39181753  0.72893459  0.92164470    -0.37900
loop_ 
_geom_bond_atom_site_label_1 
_geom_bond_atom_site_label_2 
_geom_bond_distance 
_geom_bond_site_symmetry_2 
_ccdc_geom_bond_type 
N1            N2   1.325       .  A
N1            C5   1.356       .  A
N1           Cu9   2.141       .  S
N2            C3   1.344       .  A
N2           Cu8   2.059       .  S
C3            C4   1.377       .  A
C3            H6   1.081       .  S
C4            C5   1.398       .  A
C4          C791   1.500       .  S
C5            H7   1.081       .  S
Cu8          N11   2.058       .  S
Cu9          N19   2.141       .  S
Cu10         N12   2.055       .  S
Cu10         N18   2.056       .  S
N11          N12   1.319       .  A
N11          C15   1.342       .  A
N12          C13   1.343       .  A
C13          C14   1.383       .  A
C13          H16   1.082       .  S
C14          C15   1.382       .  A
C14          C38   1.466       .  S
C15          H17   1.085       .  S
N18          N19   1.325       .  A
N18          C22   1.341       .  A
N19          C20   1.358       .  A
C20          C21   1.398       .  A
C20          H23   1.081       .  S
C21          C22   1.376       .  A
C21         C777   1.499       .  S
C22          H24   1.082       .  S
N25          N26   1.322       .  A
N25          C29   1.352   1_556  A
N25         Cu33   2.134   1_556  S
N26          C27   1.343       .  A
N26         Cu32   2.057       .  S
C27          C28   1.384       .  A
C27          H30   1.078       .  S
C28          C29   1.403   1_556  A
C28         C763   1.513   1_556  S
C29          H31   1.081       .  S
Cu32         N35   2.056       .  S
Cu33         N43   2.134   1_554  S
Cu34         N36   2.053       .  S
Cu34         N42   2.054       .  S
N35          N36   1.318       .  A
N35          C39   1.342       .  A
N36          C37   1.343       .  A
C37          C38   1.382       .  A
C37          H40   1.085       .  S
C38          C39   1.383       .  A
C39          H41   1.081       .  S
N42          N43   1.324       .  A
N42          C46   1.340       .  A
N43          C44   1.357   1_556  A
C44          C45   1.399   1_554  A
C44          H47   1.081       .  S
C45          C46   1.378       .  A
C45         C749   1.502       .  S
C46          H48   1.083       .  S
N49          N50   1.324   1_565  A
N49          C53   1.357       .  A
N49         Cu57   2.141       .  S
N50          C51   1.340       .  A
N50         Cu56   2.044       .  S
C51          C52   1.372   1_545  A
C51          H54   1.081       .  S
C52          C53   1.398       .  A
C52         C735   1.494       .  S
C53          H55   1.082       .  S
Cu56         N59   2.043       .  S
Cu57         N67   2.141       .  S
Cu58         N60   2.054       .  S
Cu58         N66   2.055       .  S
N59          N60   1.317       .  A
N59          C63   1.341       .  A
N60          C61   1.342       .  A
C61          C62   1.383       .  A
C61          H64   1.081       .  S
C62          C63   1.380       .  A
C62          C86   1.462       .  S
C63          H65   1.086       .  S
N66          N67   1.325   1_545  A
N66          C70   1.341       .  A
N67          C68   1.357       .  A
C68          C69   1.398       .  A
C68          H71   1.083       .  S
C69          C70   1.377   1_565  A
C69         C721   1.501       .  S
C70          H72   1.083       .  S
N73          N74   1.325       .  A
N73          C77   1.357       .  A
N73         Cu81   2.145       .  S
N74          C75   1.342       .  A
N74         Cu80   2.056       .  S
C75          C76   1.378       .  A
C75          H78   1.082       .  S
C76          C77   1.400       .  A
C76         C710   1.505       .  S
C77          H79   1.083   1_545  S
Cu80         N83   2.054       .  S
Cu81         N91   2.145       .  S
Cu82         N84   2.045       .  S
Cu82         N90   2.046       .  S
N83          N84   1.318       .  A
N83          C87   1.343       .  A
N84          C85   1.340       .  A
C85          C86   1.380       .  A
C85          H88   1.086       .  S
C86          C87   1.383       .  A
C87          H89   1.080       .  S
N90          N91   1.324       .  A
N90          C94   1.341       .  A
N91          C92   1.358       .  A
C92          C93   1.401       .  A
C92          H95   1.082       .  S
C93          C94   1.375       .  A
C93         C696   1.502       .  S
C94          H96   1.082       .  S
O97        Cu105   2.044   1_554  S
O97         C107   1.281       .  A
O98        Cu105   2.044   1_545  S
O98         C108   1.281       .  A
O99        Cu105   2.008       .  S
O99         C109   1.278       .  A
O100       Cu105   2.007   1_545  S
O100        C110   1.278   1_556  A
O101       Cu106   1.974   1_544  S
O101        C110   1.273       .  A
O102       Cu106   1.975       .  S
O102        C109   1.273       .  A
O103       Cu106   2.038   1_545  S
O103        C108   1.282       .  A
O104       Cu106   2.038   1_554  S
O104        C107   1.282       .  A
Cu105      Cu106   2.372       .  S
C107        C651   1.507       .  S
C108        C665   1.508       .  S
C109        C679   1.471       .  S
C110        C637   1.470       .  S
C111        N112   1.351       .  A
C111        N116   1.373       .  A
C111        C738   1.489       .  S
N112        C113   1.347       .  A
C113        N114   1.354       .  A
C113        C623   1.472       .  S
N114        C115   1.359       .  A
C115        N116   1.375       .  A
C115        C654   1.503       .  S
C117        N118   1.351       .  A
C117        N122   1.373       .  A
C117        C752   1.490       .  S
N118        C119   1.348       .  A
C119        N120   1.356       .  A
C119        C640   1.476       .  S
N120        C121   1.359       .  A
C121        N122   1.374       .  A
C121        C609   1.501       .  S
O123       Cu131   2.039   1_655  S
O123        C133   1.283       .  A
O124       Cu131   2.031       .  S
O124        C134   1.282       .  A
O125       Cu131   2.016   1_565  S
O125        C135   1.276       .  A
O126       Cu131   2.028       .  S
O126        C136   1.279       .  A
O127       Cu132   2.028       .  S
O127        C136   1.280       .  A
O128       Cu132   2.039   1_565  S
O128        C135   1.282       .  A
O129       Cu132   1.958       .  S
O129        C134   1.271       .  A
O130       Cu132   1.969   1_655  S
O130        C133   1.272       .  A
Cu131      Cu132   2.367       .  S
C133        C598   1.502       .  S
C134        C553   1.481       .  S
C135        C581   1.491       .  S
C136        C567   1.496       .  S
C137        N138   1.351       .  A
C137        N142   1.371       .  A
C137        C525   1.484       .  S
N138        C139   1.349       .  A
C139        N140   1.353       .  A
C139        C539   1.482       .  S
N140        C141   1.355       .  A
C141        N142   1.371       .  A
C141        C570   1.491       .  S
C143        N144   1.352       .  A
C143        N148   1.377       .  A
C143        C693   1.493       .  S
N144        C145   1.347       .  A
C145        N146   1.352       .  A
C145        C556   1.477       .  S
N146        C147   1.357       .  A
C147        N148   1.377       .  A
C147        C511   1.509       .  S
O149       Cu157   1.968   1_545  S
O149        C159   1.272       .  A
O150       Cu157   1.972       .  S
O150        C160   1.273       .  A
O151       Cu157   2.039       .  S
O151        C161   1.283       .  A
O152       Cu157   2.040   1_546  S
O152        C162   1.283       .  A
O153       Cu158   2.041   1_556  S
O153        C162   1.281   1_565  A
O154       Cu158   2.048       .  S
O154        C161   1.282       .  A
O155       Cu158   2.018       .  S
O155        C160   1.279       .  A
O156       Cu158   2.010   1_545  S
O156        C159   1.279       .  A
Cu157      Cu158   2.367       .  S
C159        C472   1.471       .  S
C160        C500   1.476   1_554  S
C161        C483   1.528       .  S
C162        C514   1.510       .  S
O163       Cu171   2.011       .  S
O163        C173   1.279       .  A
O164       Cu171   2.016   1_455  S
O164        C174   1.279       .  A
O165       Cu171   2.040   1_545  S
O165        C175   1.280       .  A
O166       Cu171   2.037       .  S
O166        C176   1.280       .  A
O167       Cu172   2.032       .  S
O167        C176   1.281       .  A
O168       Cu172   2.034   1_445  S
O168        C175   1.281   1_455  A
O169       Cu172   1.973   1_455  S
O169        C174   1.273       .  A
O170       Cu172   1.974       .  S
O170        C173   1.273       .  A
Cu171      Cu172   2.373       .  S
C173        C626   1.472       .  S
C174        C427   1.473       .  S
C175        C444   1.502   1_655  S
C176        C455   1.504       .  S
O177       Cu185   2.008   1_455  S
O177        C187   1.279       .  A
O178       Cu185   2.006   1_556  S
O178        C188   1.279       .  A
O179       Cu185   2.032       .  S
O179        C189   1.278       .  A
O180       Cu185   2.046   1_455  S
O180        C190   1.281       .  A
O181       Cu186   2.044   1_556  S
O181        C190   1.282   1_556  A
O182       Cu186   2.053   1_655  S
O182        C189   1.283       .  A
O183       Cu186   1.964   1_656  S
O183        C188   1.272       .  A
O184       Cu186   1.965       .  S
O184        C187   1.272       .  A
Cu185      Cu186   2.368   1_655  S
C187        C413   1.487       .  S
C188        C542   1.476       .  S
C189        C612   1.503       .  S
C190        C402   1.505   1_554  S
C191        N192   1.376       .  A
C191        N196   1.351       .  A
C191        C385   1.497       .  S
N192        C193   1.376   1_655  A
C193        N194   1.357       .  A
C193        C441   1.506       .  S
N194        C195   1.352       .  A
C195        N196   1.348   1_455  A
C195        C416   1.485       .  S
C197        N198   1.352       .  A
C197        N202   1.377       .  A
C197        C707   1.499       .  S
N198        C199   1.345       .  A
C199        N200   1.351       .  A
C199        C430   1.475       .  S
N200        C201   1.359       .  A
C201        N202   1.378       .  A
C201        C486   1.520       .  S
C203        N204   1.353       .  A
C203        N208   1.378       .  A
C203        C766   1.522   1_556  S
N204        C205   1.345       .  A
C205        N206   1.349       .  A
C205        C469   1.474       .  S
N206        C207   1.355       .  A
C207        N208   1.377       .  A
C207        C399   1.498       .  S
O209       Cu217   2.045       .  S
O209        C219   1.281       .  A
O210       Cu217   2.048   1_455  S
O210        C220   1.282       .  A
O211       Cu217   2.026   1_554  S
O211        C221   1.279       .  A
O212       Cu217   2.028       .  S
O212        C222   1.280       .  A
O213       Cu218   1.983   1_556  S
O213        C222   1.273       .  A
O214       Cu218   1.982       .  S
O214        C221   1.273       .  A
O215       Cu218   2.032   1_455  S
O215        C220   1.281   1_554  A
O216       Cu218   2.028       .  S
O216        C219   1.282   1_554  A
Cu217      Cu218   2.369   1_556  S
C219        C357   1.517       .  S
C220        C329   1.513   1_556  S
C221        C346   1.472       .  S
C222        C371   1.477   1_655  S
C223        N224   1.353       .  A
C223        N228   1.373       .  A
C223        C318   1.496       .  S
N224        C225   1.347       .  A
C225        N226   1.355       .  A
C225        C343   1.473       .  S
N226        C227   1.362       .  A
C227        N228   1.375       .  A
C227        C458   1.510       .  S
C229        N230   1.377       .  A
C229        N234   1.354       .  A
C229        C794   1.502       .  S
N230        C231   1.377       .  A
C231        N232   1.358       .  A
C231        C332   1.508   1_556  S
N232        C233   1.351       .  A
C233        N234   1.346       .  A
C233        C497   1.472       .  S
C235        N236   1.353       .  A
C235        N240   1.371       .  A
C235        C301   1.493       .  S
N236        C237   1.349       .  A
C237        N238   1.353       .  A
C237        C374   1.472       .  S
N238        C239   1.359       .  A
C239        N240   1.372       .  A
C239        C584   1.494       .  S
C241        N242   1.355       .  A
C241        N246   1.374   1_565  A
C241        C724   1.496       .  S
N242        C243   1.351   1_565  A
C243        N244   1.356       .  A
C243        C595   1.497       .  S
N244        C245   1.359       .  A
C245        N246   1.373       .  A
C245        C668   1.513       .  S
C247        N248   1.352       .  A
C247        N252   1.372       .  A
C247        C780   1.486       .  S
N248        C249   1.348       .  A
C249        N250   1.354       .  A
C249        C682   1.477       .  S
N250        C251   1.360       .  A
C251        N252   1.373       .  A
C251        C360   1.507       .  S
N253        N254   1.324       .  A
N253        C257   1.359       .  A
N253       Cu261   2.144       .  S
N254        C255   1.336       .  A
N254       Cu260   2.035       .  S
C255        C256   1.371       .  A
C255        H258   1.081       .  S
C256        C257   1.401       .  A
C256        C528   1.496       .  S
C257        H259   1.082       .  S
Cu260       N263   2.035   1_455  S
Cu261       N271   2.145       .  S
Cu262       N264   2.060   1_455  S
Cu262       N270   2.061       .  S
N263        N264   1.316       .  A
N263        C267   1.341       .  A
N264        C265   1.342       .  A
C265        C266   1.385       .  A
C265        H268   1.079       .  S
C266        C267   1.379       .  A
C266        C290   1.463       .  S
C267        H269   1.087       .  S
N270        N271   1.326       .  A
N270        C274   1.341       .  A
N271        C272   1.357       .  A
C272        C273   1.400       .  A
C272        H275   1.084       .  S
C273        C274   1.379       .  A
C273        C304   1.506       .  S
C274        H276   1.082       .  S
N277        N278   1.327       .  A
N277        C281   1.357       .  A
N277       Cu285   2.146       .  S
N278        C279   1.344       .  A
N278       Cu284   2.069       .  S
C279        C280   1.377       .  A
C279        H282   1.082       .  S
C280        C281   1.397       .  A
C280        C388   1.502       .  S
C281        H283   1.082       .  S
Cu284       N287   2.067       .  S
Cu285       N295   2.145       .  S
Cu286       N288   2.038       .  S
Cu286       N294   2.038       .  S
N287        N288   1.318       .  A
N287        C291   1.345       .  A
N288        C289   1.339       .  A
C289        C290   1.377       .  A
C289        H292   1.088       .  S
C290        C291   1.386       .  A
C291        H293   1.078       .  S
N294        N295   1.323       .  A
N294        C298   1.340       .  A
N295        C296   1.357       .  A
C296        C297   1.401       .  A
C296        H299   1.081       .  S
C297        C298   1.374       .  A
C297        C315   1.499       .  S
C298        H300   1.081       .  S
C301        C302   1.409       .  A
C301        C306   1.417       .  A
C302        C303   1.417       .  A
C302        C307   1.451   1_455  S
C303        C304   1.422       .  A
C303        C310   1.450   1_455  S
C304        C305   1.414       .  A
C305        C306   1.417       .  A
C305        C308   1.450       .  S
C306        C309   1.451       .  S
C307        N314   1.157       .  T
C308        N313   1.157       .  T
C309        N311   1.157       .  T
C310        N312   1.157       .  T
C315        C316   1.420       .  A
C315        C320   1.410   1_655  A
C316        C317   1.419       .  A
C316        C321   1.450       .  S
C317        C318   1.412       .  A
C317        C324   1.450       .  S
C318        C319   1.418   1_655  A
C319        C320   1.414       .  A
C319        C322   1.450       .  S
C320        C323   1.451       .  S
C321        N328   1.157       .  T
C322        N327   1.157       .  T
C323        N325   1.157       .  T
C324        N326   1.157       .  T
C329        C330   1.418       .  A
C329        C334   1.421   1_554  A
C330        C331   1.417       .  A
C330        C335   1.452       .  S
C331        C332   1.418       .  A
C331        C338   1.453       .  S
C332        C333   1.414   1_554  A
C333        C334   1.425       .  A
C333        C336   1.449       .  S
C334        C337   1.449       .  S
C335        N342   1.158       .  T
C336        N341   1.157       .  T
C337        N339   1.157       .  T
C338        N340   1.157       .  T
C343        C344   1.410       .  A
C343        C348   1.411   1_655  A
C344        C345   1.408       .  A
C344        C349   1.451       .  S
C345        C346   1.409       .  A
C345        C352   1.449       .  S
C346        C347   1.408   1_655  A
C347        C348   1.409       .  A
C347        C350   1.450       .  S
C348        C351   1.450       .  S
C349        N356   1.157       .  T
C350        N355   1.157       .  T
C351        N353   1.157       .  T
C352        N354   1.157       .  T
C357        C358   1.424       .  A
C357        C362   1.420   1_556  A
C358        C359   1.425       .  A
C358        C363   1.449       .  S
C359        C360   1.414       .  A
C359        C366   1.450       .  S
C360        C361   1.417   1_556  A
C361        C362   1.415       .  A
C361        C364   1.453       .  S
C362        C365   1.453       .  S
C363        N370   1.158       .  T
C364        N369   1.157       .  T
C365        N367   1.158       .  T
C366        N368   1.157       .  T
C371        C372   1.414       .  A
C371        C376   1.411   1_455  A
C372        C373   1.408       .  A
C372        C377   1.452       .  S
C373        C374   1.408       .  A
C373        C380   1.451       .  S
C374        C375   1.410   1_455  A
C375        C376   1.410       .  A
C375        C378   1.452       .  S
C376        C379   1.449       .  S
C377        N384   1.157       .  T
C378        N383   1.157       .  T
C379        N381   1.157       .  T
C380        N382   1.157       .  T
C385        C386   1.412   1_655  A
C385        C390   1.419       .  A
C386        C387   1.419       .  A
C386        C391   1.450       .  S
C387        C388   1.418   1_455  A
C387        C394   1.450       .  S
C388        C389   1.412       .  A
C389        C390   1.417       .  A
C389        C392   1.450       .  S
C390        C393   1.452       .  S
C391        N398   1.157       .  T
C392        N397   1.157       .  T
C393        N395   1.157       .  T
C394        N396   1.157       .  T
C399        C400   1.416       .  A
C399        C404   1.412   1_556  A
C400        C401   1.418       .  A
C400        C405   1.451       .  S
C401        C402   1.414       .  A
C401        C408   1.450       .  S
C402        C403   1.417   1_556  A
C403        C404   1.422       .  A
C403        C406   1.447       .  S
C404        C407   1.450       .  S
C405        N412   1.157       .  T
C406        N411   1.157       .  T
C407        N409   1.157       .  T
C408        N410   1.157       .  T
C413        C414   1.415       .  A
C413        C418   1.421   1_455  A
C414        C415   1.408       .  A
C414        C419   1.453       .  S
C415        C416   1.417       .  A
C415        C422   1.454       .  S
C416        C417   1.414   1_455  A
C417        C418   1.406       .  A
C417        C420   1.454       .  S
C418        C421   1.455       .  S
C419        N426   1.158       .  T
C420        N425   1.158       .  T
C421        N423   1.158       .  T
C422        N424   1.158       .  T
C427        C428   1.413       .  A
C427        C432   1.409   1_565  A
C428        C429   1.406       .  A
C428        C433   1.452       .  S
C429        C430   1.409       .  A
C429        C436   1.451       .  S
C430        C431   1.416       .  A
C431        C432   1.408   1_565  A
C431        C434   1.452   1_565  S
C432        C435   1.452       .  S
C433        N440   1.157       .  T
C434        N439   1.157       .  T
C435        N437   1.157       .  T
C436        N438   1.157       .  T
C441        C442   1.416   1_455  A
C441        C446   1.420       .  A
C442        C443   1.424       .  A
C442        C447   1.449       .  S
C443        C444   1.417   1_655  A
C443        C450   1.450       .  S
C444        C445   1.412       .  A
C445        C446   1.416       .  A
C445        C448   1.451       .  S
C446        C449   1.452       .  S
C447        N454   1.157       .  T
C448        N453   1.157       .  T
C449        N451   1.157       .  T
C450        N452   1.157       .  T
C455        C456   1.417   1_655  A
C455        C460   1.413       .  A
C456        C457   1.422       .  A
C456        C461   1.450       .  S
C457        C458   1.417   1_455  A
C457        C464   1.449       .  S
C458        C459   1.421       .  A
C459        C460   1.417       .  A
C459        C462   1.451       .  S
C460        C463   1.452       .  S
C461        N468   1.157       .  T
C462        N467   1.157       .  T
C463        N465   1.158       .  T
C464        N466   1.157       .  T
C469        C470   1.414   1_556  A
C469        C474   1.413       .  A
C470        C471   1.405       .  A
C470        C475   1.453       .  S
C471        C472   1.410       .  A
C471        C478   1.450       .  S
C472        C473   1.412   1_554  A
C473        C474   1.407       .  A
C473        C476   1.453       .  S
C474        C477   1.451       .  S
C475        N482   1.157       .  T
C476        N481   1.157       .  T
C477        N479   1.157       .  T
C478        N480   1.156       .  T
C483        C484   1.422   1_565  A
C483        C488   1.428       .  A
C484        C485   1.418       .  A
C484        C489   1.452       .  S
C485        C486   1.422   1_545  A
C485        C492   1.455       .  S
C486        C487   1.416       .  A
C487        C488   1.428       .  A
C487        C490   1.450       .  S
C488        C491   1.449       .  S
C489        N496   1.158       .  T
C490        N495   1.157       .  T
C491        N493   1.157       .  T
C492        N494   1.158       .  T
C497        C498   1.409       .  A
C497        C502   1.412   1_556  A
C498        C499   1.406       .  A
C498        C503   1.452       .  S
C499        C500   1.415       .  A
C499        C506   1.453       .  S
C500        C501   1.411   1_556  A
C501        C502   1.408       .  A
C501        C504   1.450       .  S
C502        C505   1.452       .  S
C503        N510   1.157       .  T
C504        N509   1.157       .  T
C505        N507   1.157       .  T
C506        N508   1.157       .  T
C511        C512   1.419       .  A
C511        C516   1.415   1_545  A
C512        C513   1.417       .  A
C512        C517   1.452       .  S
C513        C514   1.415       .  A
C513        C520   1.452       .  S
C514        C515   1.419   1_545  A
C515        C516   1.425       .  A
C515        C518   1.449       .  S
C516        C519   1.448       .  S
C517        N524   1.157       .  T
C518        N523   1.157       .  T
C519        N521   1.157       .  T
C520        N522   1.157       .  T
C525        C526   1.415       .  A
C525        C530   1.408       .  A
C526        C527   1.417       .  A
C526        C531   1.450       .  S
C527        C528   1.412       .  A
C527        C534   1.450       .  S
C528        C529   1.419       .  A
C529        C530   1.412       .  A
C529        C532   1.451   1_455  S
C530        C533   1.451   1_455  S
C531        N538   1.157       .  T
C532        N537   1.157       .  T
C533        N535   1.157       .  T
C534        N536   1.157       .  T
C539        C540   1.415   1_455  A
C539        C544   1.418       .  A
C540        C541   1.405       .  A
C540        C545   1.453       .  S
C541        C542   1.414       .  A
C541        C548   1.454       .  S
C542        C543   1.411   1_655  A
C543        C544   1.406       .  A
C543        C546   1.453       .  S
C544        C547   1.452       .  S
C545        N552   1.158       .  T
C546        N551   1.157       .  T
C547        N549   1.157       .  T
C548        N550   1.158       .  T
C553        C554   1.412       .  A
C553        C558   1.418   1_545  A
C554        C555   1.410       .  A
C554        C559   1.451       .  S
C555        C556   1.416       .  A
C555        C562   1.452       .  S
C556        C557   1.409   1_545  A
C557        C558   1.404       .  A
C557        C560   1.453       .  S
C558        C561   1.454       .  S
C559        N566   1.157       .  T
C560        N565   1.157       .  T
C561        N563   1.157       .  T
C562        N564   1.158       .  T
C567        C568   1.414   1_455  A
C567        C572   1.414       .  A
C568        C569   1.418       .  A
C568        C573   1.450       .  S
C569        C570   1.413   1_655  A
C569        C576   1.449       .  S
C570        C571   1.414       .  A
C571        C572   1.415       .  A
C571        C574   1.451       .  S
C572        C575   1.451       .  S
C573        N580   1.157       .  T
C574        N579   1.157       .  T
C575        N577   1.157       .  T
C576        N578   1.157       .  T
C581        C582   1.413       .  A
C581        C586   1.411   1_455  A
C582        C583   1.417       .  A
C582        C587   1.450       .  S
C583        C584   1.413       .  A
C583        C590   1.449       .  S
C584        C585   1.415   1_455  A
C585        C586   1.415       .  A
C585        C588   1.450       .  S
C586        C589   1.450       .  S
C587        N594   1.157       .  T
C588        N593   1.157       .  T
C589        N591   1.157       .  T
C590        N592   1.157       .  T
C595        C596   1.413   1_545  A
C595        C600   1.421       .  A
C596        C597   1.409       .  A
C596        C601   1.455       .  S
C597        C598   1.425   1_565  A
C597        C604   1.455       .  S
C598        C599   1.416       .  A
C599        C600   1.415       .  A
C599        C602   1.451       .  S
C600        C603   1.452       .  S
C601        N608   1.158       .  T
C602        N607   1.158       .  T
C603        N605   1.158       .  T
C604        N606   1.158       .  T
C609        C610   1.415       .  A
C609        C614   1.413   1_554  A
C610        C611   1.419       .  A
C610        C615   1.450       .  S
C611        C612   1.413       .  A
C611        C618   1.449       .  S
C612        C613   1.416   1_554  A
C613        C614   1.422       .  A
C613        C616   1.449       .  S
C614        C617   1.449       .  S
C615        N622   1.157       .  T
C616        N621   1.157       .  T
C617        N619   1.157       .  T
C618        N620   1.157       .  T
C623        C624   1.409   1_565  A
C623        C628   1.412       .  A
C624        C625   1.407       .  A
C624        C629   1.451       .  S
C625        C626   1.413   1_545  A
C625        C632   1.452       .  S
C626        C627   1.411       .  A
C627        C628   1.406       .  A
C627        C630   1.453       .  S
C628        C631   1.451       .  S
C629        N636   1.157       .  T
C630        N635   1.157       .  T
C631        N633   1.157       .  T
C632        N634   1.157       .  T
C637        C638   1.411       .  A
C637        C642   1.409   1_554  A
C638        C639   1.405       .  A
C638        C643   1.453       .  S
C639        C640   1.410       .  A
C639        C646   1.450       .  S
C640        C641   1.416   1_554  A
C641        C642   1.408       .  A
C641        C644   1.452       .  S
C642        C645   1.452       .  S
C643        N650   1.157       .  T
C644        N649   1.157       .  T
C645        N647   1.157       .  T
C646        N648   1.157       .  T
C651        C652   1.419   1_565  A
C651        C656   1.414       .  A
C652        C653   1.423       .  A
C652        C657   1.449       .  S
C653        C654   1.413   1_545  A
C653        C660   1.450       .  S
C654        C655   1.418       .  A
C655        C656   1.418       .  A
C655        C658   1.451       .  S
C656        C659   1.451       .  S
C657        N664   1.157       .  T
C658        N663   1.157       .  T
C659        N661   1.157       .  T
C660        N662   1.157       .  T
C665        C666   1.413       .  A
C665        C670   1.418   1_545  A
C666        C667   1.418       .  A
C666        C671   1.451       .  S
C667        C668   1.421       .  A
C667        C674   1.451       .  S
C668        C669   1.418   1_545  A
C669        C670   1.425       .  A
C669        C672   1.449       .  S
C670        C673   1.450       .  S
C671        N678   1.157       .  T
C672        N677   1.157       .  T
C673        N675   1.157       .  T
C674        N676   1.157       .  T
C679        C680   1.409   1_556  A
C679        C684   1.412       .  A
C680        C681   1.407       .  A
C680        C685   1.453       .  S
C681        C682   1.415   1_554  A
C681        C688   1.450       .  S
C682        C683   1.411       .  A
C683        C684   1.407       .  A
C683        C686   1.451       .  S
C684        C687   1.452       .  S
C685        N692   1.157       .  T
C686        N691   1.157       .  T
C687        N689   1.157       .  T
C688        N690   1.157       .  T
C693        C694   1.417   1_545  A
C693        C698   1.411       .  A
C694        C695   1.417       .  A
C694        C699   1.451       .  S
C695        C696   1.413   1_565  A
C695        C702   1.450       .  S
C696        C697   1.420       .  A
C697        C698   1.418       .  A
C697        C700   1.451       .  S
C698        C701   1.450       .  S
C699        N706   1.157       .  T
C700        N705   1.157       .  T
C701        N703   1.157       .  T
C702        N704   1.157       .  T
C707        C708   1.411   1_565  A
C707        C712   1.420       .  A
C708        C709   1.419       .  A
C708        C713   1.450       .  S
C709        C710   1.422       .  A
C709        C716   1.450       .  S
C710        C711   1.413   1_545  A
C711        C712   1.416       .  A
C711        C714   1.451       .  S
C712        C715   1.452       .  S
C713        N720   1.157       .  T
C714        N719   1.157       .  T
C715        N717   1.157       .  T
C716        N718   1.157       .  T
C721        C722   1.412       .  A
C721        C726   1.419   1_565  A
C722        C723   1.417       .  A
C722        C727   1.450       .  S
C723        C724   1.418       .  A
C723        C730   1.451       .  S
C724        C725   1.412   1_565  A
C725        C726   1.417       .  A
C725        C728   1.450       .  S
C726        C729   1.451       .  S
C727        N734   1.157       .  T
C728        N733   1.157       .  T
C729        N731   1.157       .  T
C730        N732   1.157       .  T
C735        C736   1.411       .  A
C735        C740   1.416   1_565  A
C736        C737   1.416       .  A
C736        C741   1.450       .  S
C737        C738   1.414       .  A
C737        C744   1.450       .  S
C738        C739   1.413   1_565  A
C739        C740   1.416       .  A
C739        C742   1.450       .  S
C740        C743   1.451       .  S
C741        N748   1.157       .  T
C742        N747   1.157       .  T
C743        N745   1.157       .  T
C744        N746   1.157       .  T
C749        C750   1.414   1_556  A
C749        C754   1.419       .  A
C750        C751   1.418       .  A
C750        C755   1.450       .  S
C751        C752   1.415       .  A
C751        C758   1.450       .  S
C752        C753   1.411   1_554  A
C753        C754   1.416       .  A
C753        C756   1.451       .  S
C754        C757   1.451       .  S
C755        N762   1.157       .  T
C756        N761   1.157       .  T
C757        N759   1.157       .  T
C758        N760   1.157       .  T
C763        C764   1.424       .  A
C763        C768   1.412       .  A
C764        C765   1.423       .  A
C764        C769   1.450       .  S
C765        C766   1.417       .  A
C765        C772   1.449   1_554  S
C766        C767   1.431       .  A
C767        C768   1.412       .  A
C767        C770   1.455       .  S
C768        C771   1.452       .  S
C769        N776   1.157       .  T
C770        N775   1.158       .  T
C771        N773   1.158       .  T
C772        N774   1.157       .  T
C777        C778   1.419       .  A
C777        C782   1.414   1_556  A
C778        C779   1.416       .  A
C778        C783   1.451       .  S
C779        C780   1.410       .  A
C779        C786   1.451       .  S
C780        C781   1.413   1_556  A
C781        C782   1.416       .  A
C781        C784   1.450       .  S
C782        C785   1.449       .  S
C783        N790   1.157       .  T
C784        N789   1.157       .  T
C785        N787   1.157       .  T
C786        N788   1.157       .  T
C791        C792   1.410       .  A
C791        C796   1.418   1_556  A
C792        C793   1.414       .  A
C792        C797   1.451       .  S
C793        C794   1.422       .  A
C793        C800   1.452       .  S
C794        C795   1.413   1_556  A
C795        C796   1.421       .  A
C795        C798   1.449       .  S
C796        C799   1.449       .  S
C797        N804   1.157       .  T
C798        N803   1.157       .  T
C799        N801   1.157       .  T
C800        N802   1.157       .  T
