geometry optimzed in LAMMPS
_audit_creation_date              2020-11-30 
_audit_creation_method            'lammps2cif' 
_symmetry_space_group_name_H-M    'P1' 
_symmetry_Int_Tables_number       1 
_symmetry_cell_setting            triclinic 
loop_ 
_symmetry_equiv_pos_as_xyz 
  x,y,z 
_cell_length_a                    26.08619452 
_cell_length_b                    26.096637529169268 
_cell_length_c                    26.096675414088207 
_cell_angle_alpha                 89.89092969263105 
_cell_angle_beta                  90.01301524179252 
_cell_angle_gamma                 89.87008130376226 
loop_ 
_atom_site_label 
_atom_site_type_symbol 
_atom_site_fract_x 
_atom_site_fract_y 
_atom_site_fract_z 
_atom_site_charge 
O1          O  0.54873450  0.44763170  0.96572038    -0.71600
O2          O  0.44836013  0.55336461  0.96916838    -0.71800
O3          O  0.55136187  0.55045479  0.96752792    -0.71700
O4          O  0.44565975  0.45082907  0.96740027    -0.71700
O5          O  0.45421468  0.44202250  0.04974971    -0.71600
O6          O  0.54501431  0.55615235  0.05032931    -0.71600
O7          O  0.44234094  0.54448482  0.05167526    -0.71600
O8          O  0.55708652  0.45353610  0.04828082    -0.71800
V9          V  0.49856306  0.50052496  0.96892919     1.35200
V10         V  0.49969304  0.49903249  0.04863107     1.35200
C11         C  0.57152099  0.43391442  0.00630955     0.77700
C12         C  0.42678525  0.56565535  0.01081289     0.77700
C13         C  0.56491510  0.57163075  0.00889012     0.77600
C14         C  0.43256799  0.42870759  0.00848466     0.77500
O15         O  0.44387317  0.95702421  0.44511505    -0.71600
O16         O  0.54928861  0.95718851  0.54609115    -0.71800
O17         O  0.44598259  0.95666637  0.54808393    -0.71700
O18         O  0.54654528  0.95756016  0.44284647    -0.71700
O19         O  0.54777155  0.04079398  0.44502254    -0.71600
O20         O  0.44413183  0.03975051  0.54707967    -0.71600
O21         O  0.54686041  0.04027026  0.54796889    -0.71600
O22         O  0.44435454  0.04017619  0.44424725    -0.71800
V23         V  0.49643722  0.95871135  0.49557615     1.35200
V24         V  0.49581251  0.03862960  0.49595347     1.35200
C25         C  0.42603736  0.99858731  0.42749145     0.77700
C26         C  0.56548772  0.99879080  0.56497765     0.77700
C27         C  0.42771570  0.99808734  0.56550879     0.77600
C28         C  0.56469492  0.99935135  0.42650375     0.77500
O29         O  0.05174403  0.45389521  0.44431690    -0.71600
O30         O  0.04899666  0.54969601  0.55484692    -0.71800
O31         O  0.05425043  0.44716249  0.54786203    -0.71700
O32         O  0.04687519  0.55711306  0.45224343    -0.71700
O33         O  0.96400327  0.54926324  0.44977536    -0.71600
O34         O  0.97104886  0.44604586  0.55213549    -0.71600
O35         O  0.96576363  0.54930446  0.55236034    -0.71600
O36         O  0.96903808  0.44657482  0.44979315    -0.71800
V37         V  0.04896311  0.50181384  0.49975962     1.35200
V38         V  0.96911180  0.49790053  0.50105732     1.35200
C39         C  0.01066926  0.43288681  0.42916956     0.77700
C40         C  0.00669671  0.56689369  0.57130737     0.77700
C41         C  0.01379798  0.42851909  0.56691108     0.77600
C42         C  0.00412424  0.57160808  0.43447877     0.77500
C43         C  0.27909716  0.26907753  0.00155852     0.80400
N44         N  0.22870141  0.28241536  0.99861802    -0.77900
C45         C  0.19221996  0.24583009  0.99368363     0.82900
N46         N  0.20606176  0.19585563  0.99143938    -0.77800
C47         C  0.25613219  0.18213033  0.99397971     0.83000
N48         N  0.29272197  0.21868984  0.99947139    -0.79500
C49         C  0.26736602  0.72103711  0.00603393     0.80400
N50         N  0.21691317  0.70774960  0.00791998    -0.77900
C51         C  0.18009891  0.74466475  0.00571814     0.82900
N52         N  0.19369384  0.79463448  0.00218692    -0.77800
C53         C  0.24375097  0.80812837  0.00070832     0.83000
N54         N  0.28054394  0.77137865  0.00267981    -0.79500
C55         C  0.27220530  0.99194185  0.72321898     0.80400
N56         N  0.28570689  0.99455490  0.77349677    -0.77900
C57         C  0.24889512  0.99535908  0.81023393     0.82900
N58         N  0.19876041  0.99417435  0.79657440    -0.77800
C59         C  0.18510629  0.99202180  0.74649415     0.83000
N60         N  0.22186445  0.99066036  0.70973155    -0.79500
N61         N  0.26659268  0.93808684  0.94159421    -0.36400
N62         N  0.27003114  0.05048144  0.94063078    -0.57000
N63         N  0.27224989  0.05150604  0.05296485    -0.36400
N64         N  0.26398653  0.93935372  0.05370409    -0.57000
C65         C  0.25865906  0.94680342  0.89105004     0.27200
C66         C  0.25648115  0.88800170  0.95075938     0.27200
C67         C  0.26532571  0.10209531  0.04350908     0.27200
C68         C  0.26138648  0.04343910  0.10308461     0.27200
C69         C  0.27125114  0.04234071  0.88949152     0.35800
C70         C  0.27454922  0.10157256  0.94774393     0.35800
C71         C  0.26341086  0.88805738  0.04675818     0.35800
C72         C  0.26508581  0.94732064  0.10483326     0.35800
C73         C  0.24532981  0.90106265  0.86747416    -0.25000
C74         C  0.24393925  0.86411339  0.90501026    -0.21700
C75         C  0.25222415  0.12672779  0.08876922    -0.21700
C76         C  0.24965312  0.08987115  0.12618337    -0.21700
C77         C  0.27683143  0.08863791  0.86391947    -0.22800
C78         C  0.27895925  0.12609505  0.90077623    -0.22700
C79         C  0.26418758  0.86330465  0.09385031    -0.22800
C80         C  0.26515706  0.90078851  0.13056478    -0.22700
C81         C  0.26248101  0.99462741  0.86524059    -0.18100
C82         C  0.25742874  0.86301093  0.99909107    -0.18100
C83         C  0.26088890  0.99560267  0.12893340    -0.18100
C84         C  0.26917422  0.12702154  0.99530741    -0.18100
H85         H  0.23717157  0.89481489  0.82732999     0.14800
H86         H  0.23422555  0.82423255  0.89921567     0.14800
H87         H  0.24470494  0.16710985  0.09433973     0.14800
H88         H  0.23958526  0.09661221  0.16584637     0.14800
H89         H  0.27794276  0.09493984  0.82292556     0.13100
H90         H  0.28194562  0.16687478  0.89374555     0.13100
H91         H  0.26274396  0.82248071  0.10111319     0.13100
H92         H  0.26454354  0.89446482  0.17155922     0.13100
H93         H  0.27843351  0.96470349  0.96821314     0.26400
H94         H  0.28388898  0.02417678  0.02684536     0.26400
C95         C  0.26885987  0.99533202  0.27100287     0.80400
N96         N  0.28290224  0.99342392  0.22084818    -0.77900
C97         C  0.24664306  0.99595248  0.18362946     0.82900
N98         N  0.19650559  0.99994547  0.19652154    -0.77800
C99         C  0.18229604  0.00180479  0.24638996     0.83000
N100        N  0.21847514  0.99974371  0.28372470    -0.79500
C101        C  0.73117532  0.27852544  0.99797077     0.80400
N102        N  0.78181053  0.29147497  0.99794872    -0.77900
C103        C  0.81839968  0.25424426  0.99607170     0.82900
N104        N  0.80431090  0.20428387  0.99491533    -0.77800
C105        C  0.75413615  0.19106315  0.99531523     0.83000
N106        N  0.71761234  0.22815408  0.99686740    -0.79500
C107        C  0.01118565  0.26752836  0.71962250     0.80400
N108        N  0.01151170  0.28126117  0.77000293    -0.77900
C109        C  0.00802333  0.24482473  0.80714815     0.82900
N110        N  0.00472184  0.19476053  0.79389261    -0.77800
C111        C  0.00468217  0.18081770  0.74391842     0.83000
N112        N  0.00795979  0.21712613  0.70685540    -0.79500
N113        N  0.94986516  0.26930170  0.93736842    -0.36400
N114        N  0.06175503  0.26405722  0.93820307    -0.57000
N115        N  0.06181218  0.27096953  0.05030503    -0.36400
N116        N  0.94970788  0.27234600  0.04946332    -0.57000
C117        C  0.95918430  0.25577931  0.88808023     0.27200
C118        C  0.89977851  0.25939598  0.94707058     0.27200
C119        C  0.11112229  0.25715063  0.04148431     0.27200
C120        C  0.05186308  0.26124175  0.10036184     0.27200
C121        C  0.05449911  0.26616468  0.88695332     0.35800
C122        C  0.11289952  0.26634044  0.94604671     0.35800
C123        C  0.89867745  0.27682410  0.04141978     0.35800
C124        C  0.95731975  0.27752308  0.10044986     0.35800
C125        C  0.91406085  0.23870239  0.86583268    -0.21700
C126        C  0.87676480  0.24088398  0.90287454    -0.21700
C127        C  0.13314550  0.24014490  0.08684795    -0.21700
C128        C  0.09589384  0.24265089  0.12385977    -0.21700
C129        C  0.10135746  0.26973114  0.86210123    -0.22800
C130        C  0.13833359  0.26986282  0.89953229    -0.22700
C131        C  0.87373350  0.28503670  0.08761875    -0.22800
C132        C  0.91084695  0.28548883  0.12496014    -0.22700
C133        C  0.00692918  0.25875502  0.86212830    -0.18100
C134        C  0.87375585  0.26690793  0.99430530    -0.18100
C135        C  0.00439475  0.26846401  0.12584354    -0.18100
C136        C  0.13723861  0.25942180  0.99391462    -0.18100
H137        H  0.90838496  0.22583099  0.82689722     0.14800
H138        H  0.83712147  0.22992542  0.89762550     0.14800
H139        H  0.17198454  0.22682653  0.09275107     0.14800
H140        H  0.10075088  0.23154763  0.16355684     0.14800
H141        H  0.10831914  0.27046726  0.82121987     0.13100
H142        H  0.17932782  0.27079254  0.89315972     0.13100
H143        H  0.83288023  0.28842925  0.09404627     0.13100
H144        H  0.90417280  0.28931273  0.16571265     0.13100
H145        H  0.97587433  0.28553557  0.96252656     0.26400
H146        H  0.03678272  0.28706632  0.02393058     0.26400
C147        C  0.00586647  0.27897293  0.26828845     0.80400
N148        N  0.00229712  0.22853229  0.28165787    -0.77900
C149        C  0.99919720  0.19179775  0.24492235     0.82900
N150        N  0.99930849  0.20552183  0.19485693    -0.77800
C151        C  0.00239141  0.25550370  0.18104959     0.83000
N152        N  0.00592683  0.29226971  0.21772940    -0.79500
C153        C  0.99137847  0.72957853  0.27921609     0.80400
N154        N  0.99246347  0.78016637  0.29203974    -0.77900
C155        C  0.99143869  0.81659501  0.25476829     0.82900
N156        N  0.99013334  0.80246178  0.20485210    -0.77800
C157        C  0.98964214  0.75227828  0.19179143     0.83000
N158        N  0.99036319  0.71586413  0.22892050    -0.79500
C159        C  0.72197157  0.99842583  0.27057232     0.80400
N160        N  0.70957702  0.99907838  0.21993610    -0.77900
C161        C  0.74695946  0.00179800  0.18391762     0.82900
N162        N  0.79677519  0.00381979  0.19848698    -0.77800
C163        C  0.80950798  0.00343022  0.24882254     0.83000
N164        N  0.77211611  0.00092285  0.28489560    -0.79500
N165        N  0.05128260  0.94698370  0.26995989    -0.36400
N166        N  0.93954380  0.94877155  0.26997720    -0.57000
N167        N  0.94041994  0.06147980  0.26769325    -0.36400
N168        N  0.05215482  0.05961352  0.26327881    -0.57000
C169        C  0.04152463  0.89666982  0.26178217     0.27200
C170        C  0.10111250  0.95510024  0.25808454     0.27200
C171        C  0.89014581  0.05252472  0.25836485     0.27200
C172        C  0.94967613  0.11132644  0.25623135     0.27200
C173        C  0.94648221  0.89761488  0.27464718     0.35800
C174        C  0.88853741  0.95732851  0.27288593     0.35800
C175        C  0.10328967  0.05111334  0.26437399     0.35800
C176        C  0.04540704  0.11102680  0.26409900     0.35800
C177        C  0.08623290  0.87226097  0.24640493    -0.21700
C178        C  0.12370155  0.90896596  0.24407154    -0.21700
C179        C  0.86685864  0.09780570  0.24279029    -0.21700
C180        C  0.90425416  0.13473827  0.24134670    -0.21700
C181        C  0.89959780  0.87349330  0.28077270    -0.22800
C182        C  0.86292585  0.91125366  0.27963261    -0.22700
C183        C  0.12921881  0.09742016  0.26571247    -0.22800
C184        C  0.09262843  0.13530631  0.26555159    -0.22700
C185        C  0.99358729  0.87179322  0.26730133    -0.18100
C186        C  0.12722532  0.00267692  0.25919467    -0.18100
C187        C  0.99777151  0.13657607  0.25835848    -0.18100
C188        C  0.86425604  0.00494052  0.26332791    -0.18100
H189        H  0.09141977  0.83214544  0.23738347     0.14800
H190        H  0.16307343  0.90231628  0.23274212     0.14800
H191        H  0.82692607  0.10383327  0.23355070     0.14800
H192        H  0.89854789  0.17431051  0.23017331     0.14800
H193        H  0.89240869  0.83277575  0.28397497     0.13100
H194        H  0.82195226  0.90521137  0.28181555     0.13100
H195        H  0.17027733  0.10334897  0.26544045     0.13100
H196        H  0.10004551  0.17609813  0.26506755     0.13100
H197        H  0.02576059  0.97412086  0.28355023     0.26400
H198        H  0.96665783  0.03522550  0.28172032     0.26400
C199        C  0.71944385  0.73045546  0.00339322     0.80400
N200        N  0.70544406  0.78079073  0.00216032    -0.77900
C201        C  0.74194866  0.81786342  0.00083182     0.82900
N202        N  0.79220619  0.80466140  0.00139303    -0.77800
C203        C  0.80634898  0.75475499  0.00305994     0.83000
N204        N  0.77003688  0.71770148  0.00400476    -0.79500
C205        C  0.99920228  0.72130874  0.73038898     0.80400
N206        N  0.99550059  0.77139628  0.71620995    -0.77900
C207        C  0.99271684  0.80859776  0.75232669     0.82900
N208        N  0.99364110  0.79581809  0.80260822    -0.77800
C209        C  0.99702617  0.74610299  0.81722537     0.83000
N210        N  0.99991045  0.70870276  0.78111680    -0.79500
C211        C  0.72250423  0.99790899  0.72304637     0.80400
N212        N  0.70928510  0.00249423  0.77337501    -0.77900
C213        C  0.74629210  0.00484003  0.80998197     0.82900
N214        N  0.79632328  0.00298883  0.79620839    -0.77800
C215        C  0.80990260  0.99873292  0.74629876     0.83000
N216        N  0.77297712  0.99593621  0.70963339    -0.79500
N217        N  0.72403150  0.94841106  0.94108301    -0.36400
N218        N  0.73218405  0.06037395  0.94098320    -0.57000
N219        N  0.73076728  0.06073496  0.05298281    -0.36400
N220        N  0.72639851  0.94885891  0.05313692    -0.57000
C221        C  0.73612509  0.95721138  0.89133704     0.27200
C222        C  0.73392019  0.89829950  0.95083272     0.27200
C223        C  0.74324435  0.11027055  0.04383255     0.27200
C224        C  0.74057923  0.05112676  0.10305299     0.27200
C225        C  0.72803841  0.05281568  0.88990119     0.35800
C226        C  0.73149681  0.11163104  0.94854190     0.35800
C227        C  0.72023740  0.89805288  0.04565579     0.35800
C228        C  0.72338783  0.95673231  0.10418810     0.35800
C229        C  0.75210066  0.91171139  0.86887756    -0.21700
C230        C  0.75071757  0.87472804  0.90627541    -0.21700
C231        C  0.75950422  0.13284155  0.08909642    -0.21700
C232        C  0.75767284  0.09569026  0.12631792    -0.21700
C233        C  0.72471702  0.09957810  0.86481269    -0.22800
C234        C  0.72697366  0.13680093  0.90191974    -0.22700
C235        C  0.71306015  0.87345505  0.09223170    -0.22800
C236        C  0.71518465  0.91059163  0.12929992    -0.22700
C237        C  0.73327821  0.00486960  0.86519673    -0.18100
C238        C  0.72821404  0.87279801  0.99853924    -0.18100
C239        C  0.73417863  0.00366010  0.12881186    -0.18100
C240        C  0.74016287  0.13614419  0.99610071    -0.18100
H241        H  0.76401097  0.90564354  0.82961992     0.14800
H242        H  0.76107746  0.83493384  0.90108387     0.14800
H243        H  0.77154200  0.17207495  0.09489334     0.14800
H244        H  0.76755719  0.10116634  0.16611715     0.14800
H245        H  0.72254093  0.10621561  0.82391230     0.13100
H246        H  0.72689023  0.17773215  0.89518637     0.13100
H247        H  0.70879241  0.83275156  0.09899191     0.13100
H248        H  0.71300553  0.90399505  0.17017492     0.13100
H249        H  0.70892868  0.97483704  0.96655577     0.26400
H250        H  0.71545854  0.03528451  0.02682587     0.26400
N251        N  0.05292520  0.93693044  0.72781462    -0.36400
N252        N  0.94002847  0.94022008  0.73063550    -0.57000
N253        N  0.94265036  0.05194806  0.72545962    -0.36400
N254        N  0.05534531  0.04862727  0.72689587    -0.57000
C255        C  0.04256557  0.88760470  0.74002336     0.27200
C256        C  0.10329517  0.94489941  0.73774296     0.27200
C257        C  0.89195574  0.04489282  0.73433093     0.27200
C258        C  0.95298412  0.10214313  0.73341084     0.27200
C259        C  0.94662628  0.88882417  0.73085931     0.35800
C260        C  0.88891149  0.94892591  0.72876527     0.35800
C261        C  0.10636056  0.03982068  0.72452435     0.35800
C262        C  0.04885672  0.09989251  0.72380553     0.35800
C263        C  0.08740604  0.86351881  0.75590519    -0.21700
C264        C  0.12553920  0.89953913  0.75443114    -0.21700
C265        C  0.86948811  0.09171491  0.74599307    -0.21700
C266        C  0.90784505  0.12767147  0.74538649    -0.21700
C267        C  0.89936334  0.86466344  0.72910301    -0.22800
C268        C  0.86286682  0.90266386  0.72784606    -0.22700
C269        C  0.13247118  0.08578168  0.71962918    -0.22800
C270        C  0.09610254  0.12379726  0.71924851    -0.22700
C271        C  0.99404801  0.86325986  0.73790247    -0.18100
C272        C  0.13009526  0.99180954  0.73288154    -0.18100
C273        C  0.00178168  0.12595447  0.73071005    -0.18100
C274        C  0.86511843  0.99759949  0.73304937    -0.18100
H275        H  0.09226376  0.82410893  0.76801290     0.14800
H276        H  0.16511359  0.89301855  0.76501691     0.14800
H277        H  0.82959595  0.09930498  0.75458806     0.14800
H278        H  0.90292239  0.16809413  0.75308000     0.14800
H279        H  0.89187744  0.82389153  0.73017360     0.13100
H280        H  0.82180522  0.89683826  0.72782801     0.13100
H281        H  0.17353773  0.09149938  0.71828992     0.13100
H282        H  0.10374876  0.16450908  0.71744652     0.13100
H283        H  0.02721066  0.96327769  0.71300970     0.26400
H284        H  0.96868355  0.02427038  0.71437438     0.26400
N285        N  0.93754207  0.73088399  0.94782789    -0.36400
N286        N  0.04965546  0.72846356  0.94957272    -0.57000
N287        N  0.04833049  0.72771907  0.06223913    -0.36400
N288        N  0.93622839  0.73486412  0.06024300    -0.57000
C289        C  0.94736027  0.73889368  0.89747945     0.27200
C290        C  0.88752595  0.74230206  0.95587204     0.27200
C291        C  0.09908254  0.73485946  0.05397113     0.27200
C292        C  0.03912270  0.73769875  0.11233272     0.27200
C293        C  0.04283973  0.72668427  0.89820826     0.35800
C294        C  0.10072319  0.72576274  0.95804974     0.35800
C295        C  0.88511237  0.73571669  0.05188405     0.35800
C296        C  0.94291256  0.73427338  0.11160128     0.35800
C297        C  0.90244125  0.75373358  0.87297955    -0.21700
C298        C  0.86486991  0.75580098  0.90966305    -0.21700
C299        C  0.12270789  0.74742085  0.09991209    -0.21700
C300        C  0.08504594  0.74905964  0.13660539    -0.21700
C301        C  0.08993344  0.72280182  0.87389919    -0.22800
C302        C  0.12651357  0.72218275  0.91170472    -0.22700
C303        C  0.85915071  0.73565465  0.09827515    -0.22800
C304        C  0.89571145  0.73476090  0.13604112    -0.22700
C305        C  0.99547840  0.73383292  0.87258703    -0.18100
C306        C  0.86134586  0.74145299  0.00347813    -0.18100
C307        C  0.99063855  0.73818444  0.13700860    -0.18100
C308        C  0.12499671  0.73159924  0.00626245    -0.18100
H309        H  0.89711846  0.76263495  0.83279932     0.14800
H310        H  0.82534719  0.76643835  0.90293279     0.14800
H311        H  0.16290776  0.75536890  0.10634779     0.14800
H312        H  0.09088174  0.75836999  0.17655683     0.14800
H313        H  0.09733416  0.72216321  0.83310812     0.13100
H314        H  0.16754342  0.72075966  0.90564392     0.13100
H315        H  0.81814274  0.73754338  0.10435851     0.13100
H316        H  0.88836303  0.73574460  0.17685440     0.13100
H317        H  0.96323636  0.71781523  0.97500424     0.26400
H318        H  0.02159872  0.71667159  0.03527698     0.26400
C319        C  0.00490679  0.60683649  0.61154353     0.00000
C320        C  0.03873661  0.60372650  0.65329660    -0.11800
C321        C  0.03732882  0.64025842  0.69268311     0.02300
C322        C  0.00176558  0.68111148  0.69043267     0.00000
C323        C  0.96885531  0.68488011  0.64801506    -0.11800
C324        C  0.97005288  0.64827878  0.60883903     0.02200
H325        H  0.06616814  0.57250502  0.65529583     0.15100
H326        H  0.94201189  0.71659947  0.64546935     0.15100
C327        C  0.93697095  0.65567554  0.56502992     0.36800
C328        C  0.07447953  0.63637936  0.73352563     0.36700
N329        N  0.91074215  0.66186740  0.52977230    -0.43500
N330        N  0.10451289  0.63338458  0.76604295    -0.43500
C331        C  0.01333610  0.30732078  0.67899981     0.00000
C332        C  0.04504562  0.35023642  0.68599665    -0.11800
C333        C  0.04726058  0.38935186  0.64910161     0.02300
C334        C  0.01588062  0.38678212  0.60515905     0.00000
C335        C  0.98440971  0.34395726  0.59803850    -0.11800
C336        C  0.98363499  0.30389580  0.63374921     0.02200
H337        H  0.06844772  0.35305629  0.72023226     0.15100
H338        H  0.96052003  0.34165436  0.56416941     0.15100
C339        C  0.95092257  0.26055310  0.62333429     0.36800
C340        C  0.08061232  0.43249455  0.65805496     0.36700
N341        N  0.92501303  0.22570308  0.61458098    -0.43500
N342        N  0.10748645  0.46698503  0.66513981    -0.43500
C343        C  0.00080441  0.61303301  0.39601937     0.00000
C344        C  0.96801644  0.60648731  0.35400454    -0.11800
C345        C  0.96409789  0.64397884  0.31580628     0.02300
C346        C  0.99298902  0.68959695  0.31961275     0.00000
C347        C  0.02464514  0.69681670  0.36259016    -0.11800
C348        C  0.02897707  0.65891576  0.40053373     0.02200
H349        H  0.94578149  0.57156192  0.35068173     0.15100
H350        H  0.04662992  0.73185198  0.36620585     0.15100
C351        C  0.06088236  0.66884931  0.44464312     0.36800
C352        C  0.92883728  0.63517665  0.27408627     0.36700
N353        N  0.08619927  0.67689239  0.48014417    -0.43500
N354        N  0.90048328  0.62796402  0.24077182    -0.43500
C355        C  0.00853697  0.31891550  0.30889413     0.00000
C356        C  0.97798806  0.31301734  0.35275861    -0.11800
C357        C  0.97813130  0.34966952  0.39191901     0.02300
C358        C  0.01062821  0.39285825  0.38866846     0.00000
C359        C  0.04212467  0.39836565  0.34534253    -0.11800
C360        C  0.04070339  0.36241122  0.30523219     0.02200
H361        H  0.95298943  0.28001035  0.35604905     0.15100
H362        H  0.06699646  0.43147420  0.34223868     0.15100
C363        C  0.07331123  0.37063765  0.26129591     0.36800
C364        C  0.94481943  0.34153924  0.43535144     0.36700
N365        N  0.09925188  0.37731159  0.22594367    -0.43500
N366        N  0.91775739  0.33516801  0.46989116    -0.43500
C367        C  0.60519377  0.99880712  0.60605744     0.00000
C368        C  0.64173759  0.95910929  0.60762196    -0.11800
C369        C  0.68030321  0.95809136  0.64521746     0.02300
C370        C  0.68213710  0.99666134  0.68303335     0.00000
C371        C  0.64496487  0.03551772  0.68238234    -0.11800
C372        C  0.60723840  0.03736314  0.64411771     0.02200
H373        H  0.64065252  0.92910963  0.57894241     0.15100
H374        H  0.64605605  0.06524085  0.71137622     0.15100
C375        C  0.57085547  0.07903566  0.64557446     0.36800
C376        C  0.71657514  0.91622934  0.64512194     0.36700
N377        N  0.54217923  0.11287344  0.64692396    -0.43500
N378        N  0.74555456  0.88258839  0.64505558    -0.43500
C379        C  0.38798510  0.99742820  0.60630267     0.00000
C380        C  0.35807702  0.95304414  0.61269854    -0.11800
C381        C  0.31994350  0.95052220  0.65041682     0.02300
C382        C  0.31202144  0.99245842  0.68335211     0.00000
C383        C  0.34205086  0.03642821  0.67775180    -0.11800
C384        C  0.37923373  0.03968376  0.63924459     0.02200
H385        H  0.36401373  0.92036192  0.58777207     0.15100
H386        H  0.33568025  0.06879785  0.70302934     0.15100
C387        C  0.40741631  0.08700506  0.63491907     0.36800
C388        C  0.29023099  0.90416115  0.65542987     0.36700
N389        N  0.42911117  0.12549156  0.63165676    -0.43500
N390        N  0.26647061  0.86698024  0.65950748    -0.43500
C391        C  0.68121378  0.99754652  0.31003332     0.00000
C392        C  0.68754735  0.02759318  0.35416745    -0.11800
C393        C  0.64969980  0.02930650  0.39211402     0.02300
C394        C  0.60494965  0.99958145  0.38684290     0.00000
C395        C  0.59884097  0.96881784  0.34327483    -0.11800
C396        C  0.63610298  0.96804665  0.30461827     0.02200
H397        H  0.72191431  0.05046096  0.35873323     0.15100
H398        H  0.56450354  0.94580342  0.33915590     0.15100
C399        C  0.62744541  0.93565567  0.26065970     0.36800
C400        C  0.65849369  0.06050145  0.43689813     0.36700
N401        N  0.62003381  0.90971986  0.22551727    -0.43500
N402        N  0.66554515  0.08545408  0.47281530    -0.43500
C403        C  0.38495335  0.99817390  0.38803377     0.00000
C404        C  0.38216377  0.95658734  0.35390035    -0.11800
C405        C  0.34451760  0.95476595  0.31559209     0.02300
C406        C  0.30829934  0.99470674  0.31144546     0.00000
C407        C  0.31003929  0.03551794  0.34616143    -0.11800
C408        C  0.34807219  0.03786190  0.38397148     0.02200
H409        H  0.40981849  0.92561966  0.35677131     0.15100
H410        H  0.28195103  0.06611779  0.34321622     0.15100
C411        C  0.34714989  0.08075053  0.41881280     0.36800
C412        C  0.34268367  0.91077788  0.28212414     0.36700
N413        N  0.34604574  0.11527103  0.44656340    -0.43500
N414        N  0.34100283  0.87544421  0.25544476    -0.43500
C415        C  0.60383692  0.61275084  0.00838743     0.00000
C416        C  0.64730765  0.60656425  0.97735788    -0.11800
C417        C  0.68542121  0.64420317  0.97532915     0.02300
C418        C  0.67995635  0.68971395  0.00415841     0.00000
C419        C  0.63595938  0.69632127  0.03448495    -0.11800
C420        C  0.59824385  0.65817529  0.03718206     0.02200
H421        H  0.65172554  0.57189531  0.95488833     0.15100
H422        H  0.63128178  0.73117483  0.05659613     0.15100
C423        C  0.55330020  0.66753421  0.06808692     0.36800
C424        C  0.72880395  0.63581654  0.94195178     0.36700
N425        N  0.51726415  0.67530719  0.09276128    -0.43500
N426        N  0.76361088  0.62918223  0.91526067    -0.43500
C427        C  0.61341850  0.39525850  0.00437827     0.00000
C428        C  0.60919018  0.35426286  0.96987740    -0.11800
C429        C  0.64709623  0.31619372  0.96709788     0.02300
C430        C  0.69085797  0.31886815  0.99893351     0.00000
C431        C  0.69592739  0.36070913  0.03237373    -0.11800
C432        C  0.65766508  0.39860491  0.03548480     0.02200
H433        H  0.57579425  0.35164583  0.94525099     0.15100
H434        H  0.72963371  0.36353545  0.05653976     0.15100
C435        C  0.66581659  0.44168774  0.06912704     0.36800
C436        C  0.64097942  0.27584745  0.92979987     0.36700
N437        N  0.67241156  0.47645243  0.09577848    -0.43500
N438        N  0.63613255  0.24361644  0.89980186    -0.43500
C439        C  0.30785601  0.68107154  0.00690102     0.00000
C440        C  0.30444504  0.64040121  0.04207286    -0.11800
C441        C  0.34293489  0.60272282  0.04486487     0.02300
C442        C  0.38526320  0.60472189  0.01101105     0.00000
C443        C  0.38795016  0.64491795  0.97527214    -0.11800
C444        C  0.35021449  0.68307658  0.97328299     0.02200
H445        H  0.27200318  0.63849883  0.06799774     0.15100
H446        H  0.42009833  0.64689249  0.94898576     0.15100
C447        C  0.35518064  0.72301964  0.93522237     0.36800
C448        C  0.33716367  0.56190989  0.08182924     0.36700
N449        N  0.35908583  0.75512939  0.90483402    -0.43500
N450        N  0.33222319  0.52940296  0.11164206    -0.43500
C451        C  0.39252162  0.38868022  0.00801578     0.00000
C452        C  0.39878383  0.34444963  0.03812402    -0.11800
C453        C  0.36233987  0.30496371  0.03696538     0.02300
C454        C  0.31855289  0.30964617  0.00534062     0.00000
C455        C  0.31159979  0.35469376  0.97669247    -0.11800
C456        C  0.34793921  0.39398110  0.97775782     0.02200
H457        H  0.43247390  0.34050289  0.06219121     0.15100
H458        H  0.27771924  0.35912198  0.95296176     0.15100
C459        C  0.33732028  0.44029784  0.94922229     0.36800
C460        C  0.36967175  0.26125330  0.07020815     0.36700
N461        N  0.32853927  0.47751127  0.92664873    -0.43500
N462        N  0.37537128  0.22637645  0.09709169    -0.43500
loop_ 
_geom_bond_atom_site_label_1 
_geom_bond_atom_site_label_2 
_geom_bond_distance 
_geom_bond_site_symmetry_2 
_ccdc_geom_bond_type 
O1            V9   1.902       .  S
O1           C11   1.265   1_556  A
O2            V9   1.900       .  S
O2           C12   1.266   1_556  A
O3            V9   1.898       .  S
O3           C13   1.264   1_556  A
O4            V9   1.896       .  S
O4           C14   1.264   1_556  A
O5           V10   1.905       .  S
O5           C14   1.265       .  A
O6           V10   1.905       .  S
O6           C13   1.266       .  A
O7           V10   1.909       .  S
O7           C12   1.266       .  A
O8           V10   1.909       .  S
O8           C11   1.267       .  A
V9           V10   2.080   1_556  T
C11         C427   1.487       .  S
C12         C442   1.486       .  S
C13         C415   1.479       .  S
C14         C451   1.479       .  S
O15          V23   1.902       .  S
O15          C25   1.265       .  A
O16          V23   1.908       .  S
O16          C26   1.267       .  A
O17          V23   1.901       .  S
O17          C27   1.266       .  A
O18          V23   1.898       .  S
O18          C28   1.263       .  A
O19          V24   1.899       .  S
O19          C28   1.264   1_545  A
O20          V24   1.897       .  S
O20          C27   1.264   1_545  A
O21          V24   1.902       .  S
O21          C26   1.265   1_545  A
O22          V24   1.903       .  S
O22          C25   1.266   1_545  A
V23          V24   2.086   1_565  T
C25         C403   1.486       .  S
C26         C367   1.491       .  S
C27         C379   1.486       .  S
C28         C394   1.475       .  S
O29          V37   1.915       .  S
O29          C39   1.268       .  A
O30          V37   1.907       .  S
O30          C40   1.266       .  A
O31          V37   1.903       .  S
O31          C41   1.265       .  A
O32          V37   1.902       .  S
O32          C42   1.264       .  A
O33          V38   1.897       .  S
O33          C42   1.264   1_655  A
O34          V38   1.898       .  S
O34          C41   1.264   1_655  A
O35          V38   1.899       .  S
O35          C40   1.264   1_655  A
O36          V38   1.895       .  S
O36          C39   1.263   1_655  A
V37          V38   2.086   1_455  T
C39         C358   1.487       .  S
C40         C319   1.482       .  S
C41         C334   1.477       .  S
C42         C343   1.476       .  S
C43         C454   1.482       .  S
C43          N44   1.361   1_554  A
C43          N48   1.363   1_554  A
N44          C45   1.356       .  A
C45         C136   1.477       .  S
C45          N46   1.354       .  A
N46          C47   1.355       .  A
C47          C84   1.477       .  S
C47          N48   1.359       .  A
C49         C439   1.483       .  S
C49          N50   1.363       .  A
C49          N54   1.361       .  A
N50          C51   1.360       .  A
C51         C308   1.478       .  S
C51          N52   1.355       .  A
N52          C53   1.354       .  A
C53          C82   1.477   1_554  S
C53          N54   1.356       .  A
C55         C382   1.470       .  S
C55          N56   1.360       .  A
C55          N60   1.360       .  A
N56          C57   1.357       .  A
C57          C81   1.479       .  S
C57          N58   1.356       .  A
N58          C59   1.356       .  A
C59         C272   1.478       .  S
C59          N60   1.357       .  A
N61          C66   1.355       .  A
N61          C65   1.354       .  A
N61          H93   1.031       .  S
N62          C69   1.352       .  A
N62          C70   1.352       .  A
N63          C68   1.355       .  A
N63          C67   1.354       .  A
N63          H94   1.033       .  S
N64          C71   1.351       .  A
N64          C72   1.351       .  A
C65          C73   1.389       .  A
C65          C81   1.421       .  A
C66          C82   1.419       .  A
C66          C74   1.387       .  A
C67          C75   1.388       .  A
C67          C84   1.419   1_554  A
C68          C83   1.418   1_545  A
C68          C76   1.388       .  A
C69          C81   1.417   1_545  A
C69          C77   1.387       .  A
C70          C84   1.416       .  A
C70          C78   1.387       .  A
C71          C79   1.387       .  A
C71          C82   1.415   1_554  A
C72          C80   1.387       .  A
C72          C83   1.413       .  A
C73          C74   1.374       .  A
C73          H85   1.082       .  S
C74          H86   1.083       .  S
C75          C76   1.371       .  A
C75          H87   1.082       .  S
C76          H88   1.083       .  S
C77          C78   1.374       .  A
C77          H89   1.082       .  S
C78          H90   1.083       .  S
C79          C80   1.371       .  A
C79          H91   1.082       .  S
C80          H92   1.082       .  S
C83          C97   1.475       .  S
C95         C406   1.474       .  S
C95          N96   1.360       .  A
C95         N100   1.360       .  A
N96          C97   1.357       .  A
C97          N98   1.354       .  A
N98          C99   1.354   1_565  A
C99         C186   1.475       .  S
C99         N100   1.357   1_545  A
C101        C430   1.487       .  S
C101        N102   1.364       .  A
C101        N106   1.362       .  A
N102        C103   1.361       .  A
C103        C134   1.483       .  S
C103        N104   1.356       .  A
N104        C105   1.354       .  A
C105        C240   1.480       .  S
C105        N106   1.357       .  A
C107        C331   1.484       .  S
C107        N108   1.363       .  A
C107        N112   1.360       .  A
N108        C109   1.360       .  A
C109        C133   1.481       .  S
C109        N110   1.355       .  A
N110        C111   1.355       .  A
C111        C273   1.475       .  S
C111        N112   1.356       .  A
N113        C118   1.356       .  A
N113        C117   1.356       .  A
N113        H145   1.036       .  S
N114        C121   1.352       .  A
N114        C122   1.351       .  A
N115        C120   1.356       .  A
N115        C119   1.355       .  A
N115        H146   1.036       .  S
N116        C123   1.352       .  A
N116        C124   1.352       .  A
C117        C125   1.387       .  A
C117        C133   1.420   1_655  A
C118        C134   1.421       .  A
C118        C126   1.388       .  A
C119        C127   1.387       .  A
C119        C136   1.417   1_554  A
C120        C135   1.418       .  A
C120        C128   1.388       .  A
C121        C133   1.414       .  A
C121        C129   1.387       .  A
C122        C136   1.412       .  A
C122        C130   1.386       .  A
C123        C131   1.387       .  A
C123        C134   1.415   1_554  A
C124        C132   1.386       .  A
C124        C135   1.414   1_655  A
C125        C126   1.373       .  A
C125        H137   1.081       .  S
C126        H138   1.082       .  S
C127        C128   1.372       .  A
C127        H139   1.081       .  S
C128        H140   1.083       .  S
C129        C130   1.373       .  A
C129        H141   1.082       .  S
C130        H142   1.083       .  S
C131        C132   1.374       .  A
C131        H143   1.082       .  S
C132        H144   1.082       .  S
C135        C151   1.480       .  S
C147        C355   1.490       .  S
C147        N148   1.365       .  A
C147        N152   1.364       .  A
N148        C149   1.360   1_455  A
C149        C187   1.483       .  S
C149        N150   1.354       .  A
N150        C151   1.355   1_655  A
C151        N152   1.360       .  A
C153        C346   1.482       .  S
C153        N154   1.363       .  A
C153        N158   1.361       .  A
N154        C155   1.359       .  A
C155        C185   1.479       .  S
C155        N156   1.355       .  A
N156        C157   1.354       .  A
C157        C307   1.477       .  S
C157        N158   1.356       .  A
C159        C391   1.481       .  S
C159        N160   1.360       .  A
C159        N164   1.362   1_565  A
N160        C161   1.356   1_565  A
C161        C239   1.477       .  S
C161        N162   1.355       .  A
N162        C163   1.355       .  A
C163        C188   1.478       .  S
C163        N164   1.357       .  A
N165        C170   1.353       .  A
N165        C169   1.355       .  A
N165        H197   1.034       .  S
N166        C173   1.352       .  A
N166        C174   1.351       .  A
N167        C172   1.356       .  A
N167        C171   1.355       .  A
N167        H198   1.034       .  S
N168        C175   1.352       .  A
N168        C176   1.353       .  A
C169        C177   1.387       .  A
C169        C185   1.418   1_455  A
C170        C186   1.418   1_565  A
C170        C178   1.389       .  A
C171        C179   1.388       .  A
C171        C188   1.421       .  A
C172        C187   1.420       .  A
C172        C180   1.387       .  A
C173        C185   1.413       .  A
C173        C181   1.386       .  A
C174        C188   1.415   1_565  A
C174        C182   1.388       .  A
C175        C183   1.387       .  A
C175        C186   1.415       .  A
C176        C184   1.387       .  A
C176        C187   1.417   1_455  A
C177        C178   1.371       .  A
C177        H189   1.082       .  S
C178        H190   1.083       .  S
C179        C180   1.373       .  A
C179        H191   1.080       .  S
C180        H192   1.082       .  S
C181        C182   1.372       .  A
C181        H193   1.083       .  S
C182        H194   1.082       .  S
C183        C184   1.373       .  A
C183        H195   1.083       .  S
C184        H196   1.082       .  S
C199        C418   1.482       .  S
C199        N200   1.363       .  A
C199        N204   1.360       .  A
N200        C201   1.359       .  A
C201        C238   1.478   1_554  S
C201        N202   1.355       .  A
N202        C203   1.353       .  A
C203        C306   1.475       .  S
C203        N204   1.355       .  A
C205        C322   1.482   1_655  S
C205        N206   1.361       .  A
C205        N210   1.364       .  A
N206        C207   1.356       .  A
C207        C271   1.475       .  S
C207        N208   1.353       .  A
N208        C209   1.354       .  A
C209        C305   1.480       .  S
C209        N210   1.360       .  A
C211        C370   1.483       .  S
C211        N212   1.363   1_565  A
C211        N216   1.363       .  A
N212        C213   1.360       .  A
C213        C237   1.480       .  S
C213        N214   1.355       .  A
N214        C215   1.355   1_545  A
C215        C274   1.482       .  S
C215        N216   1.360       .  A
N217        C222   1.356       .  A
N217        C221   1.355       .  A
N217        H249   1.036       .  S
N218        C225   1.352       .  A
N218        C226   1.353       .  A
N219        C224   1.354       .  A
N219        C223   1.355       .  A
N219        H250   1.034       .  S
N220        C227   1.350       .  A
N220        C228   1.351       .  A
C221        C229   1.388       .  A
C221        C237   1.419   1_565  A
C222        C238   1.419       .  A
C222        C230   1.387       .  A
C223        C231   1.388       .  A
C223        C240   1.418   1_554  A
C224        C239   1.418       .  A
C224        C232   1.387       .  A
C225        C237   1.415       .  A
C225        C233   1.386       .  A
C226        C240   1.416       .  A
C226        C234   1.386       .  A
C227        C235   1.386       .  A
C227        C238   1.411   1_554  A
C228        C236   1.387       .  A
C228        C239   1.413   1_565  A
C229        C230   1.372       .  A
C229        H241   1.082       .  S
C230        H242   1.081       .  S
C231        C232   1.372       .  A
C231        H243   1.083       .  S
C232        H244   1.080       .  S
C233        C234   1.374       .  A
C233        H245   1.082       .  S
C234        H246   1.082       .  S
C235        C236   1.372       .  A
C235        H247   1.082       .  S
C236        H248   1.082       .  S
N251        C256   1.356       .  A
N251        C255   1.353       .  A
N251        H283   1.034       .  S
N252        C259   1.352       .  A
N252        C260   1.353       .  A
N253        C258   1.354       .  A
N253        C257   1.356       .  A
N253        H284   1.032       .  S
N254        C261   1.351       .  A
N254        C262   1.350       .  A
C255        C263   1.389       .  A
C255        C271   1.419   1_455  A
C256        C272   1.417       .  A
C256        C264   1.387       .  A
C257        C265   1.388       .  A
C257        C274   1.421   1_545  A
C258        C273   1.419   1_655  A
C258        C266   1.388       .  A
C259        C271   1.416       .  A
C259        C267   1.387       .  A
C260        C274   1.417       .  A
C260        C268   1.387       .  A
C261        C269   1.386       .  A
C261        C272   1.413   1_545  A
C262        C270   1.388       .  A
C262        C273   1.414       .  A
C263        C264   1.371       .  A
C263        H275   1.082       .  S
C264        H276   1.082       .  S
C265        C266   1.373       .  A
C265        H277   1.082       .  S
C266        H278   1.082       .  S
C267        C268   1.373       .  A
C267        H279   1.083       .  S
C268        H280   1.082       .  S
C269        C270   1.371       .  A
C269        H281   1.083       .  S
C270        H282   1.082       .  S
N285        C290   1.354       .  A
N285        C289   1.355       .  A
N285        H317   1.033       .  S
N286        C293   1.353       .  A
N286        C294   1.352       .  A
N287        C292   1.355       .  A
N287        C291   1.355       .  A
N287        H318   1.032       .  S
N288        C295   1.351       .  A
N288        C296   1.352       .  A
C289        C297   1.389       .  A
C289        C305   1.419       .  A
C290        C306   1.418   1_556  A
C290        C298   1.387       .  A
C291        C299   1.388       .  A
C291        C308   1.419       .  A
C292        C307   1.419   1_455  A
C292        C300   1.388       .  A
C293        C305   1.416   1_455  A
C293        C301   1.386       .  A
C294        C308   1.417   1_556  A
C294        C302   1.387       .  A
C295        C303   1.387       .  A
C295        C306   1.415       .  A
C296        C304   1.387       .  A
C296        C307   1.414       .  A
C297        C298   1.371       .  A
C297        H309   1.082       .  S
C298        H310   1.081       .  S
C299        C300   1.373       .  A
C299        H311   1.083       .  S
C300        H312   1.082       .  S
C301        C302   1.372       .  A
C301        H313   1.082       .  S
C302        H314   1.083       .  S
C303        C304   1.371       .  A
C303        H315   1.083       .  S
C304        H316   1.083       .  S
C319        C320   1.404       .  A
C319        C324   1.413   1_455  A
C320        C321   1.404       .  A
C320        H325   1.084       .  S
C321        C322   1.413       .  A
C321        C328   1.444       .  S
C322        C323   1.404   1_455  A
C323        C324   1.401       .  A
C323        H326   1.085       .  S
C324        C327   1.445       .  S
C327        N329   1.157       .  T
C328        N330   1.157       .  T
C331        C332   1.406       .  A
C331        C336   1.415   1_455  A
C332        C333   1.403       .  A
C332        H337   1.085       .  S
C333        C334   1.411       .  A
C333        C340   1.444       .  S
C334        C335   1.401   1_455  A
C335        C336   1.399       .  A
C335        H338   1.083       .  S
C336        C339   1.445       .  S
C339        N341   1.157       .  T
C340        N342   1.157       .  T
C343        C344   1.401   1_455  A
C343        C348   1.411       .  A
C344        C345   1.399       .  A
C344        H349   1.085       .  S
C345        C346   1.414       .  A
C345        C352   1.444       .  S
C346        C347   1.406   1_655  A
C347        C348   1.403       .  A
C347        H350   1.085       .  S
C348        C351   1.445       .  S
C351        N353   1.157       .  T
C352        N354   1.157       .  T
C355        C356   1.403   1_455  A
C355        C360   1.416       .  A
C356        C357   1.401       .  A
C356        H361   1.085       .  S
C357        C358   1.414   1_655  A
C357        C364   1.444       .  S
C358        C359   1.405       .  A
C359        C360   1.408       .  A
C359        H362   1.085       .  S
C360        C363   1.444       .  S
C363        N365   1.157       .  T
C364        N366   1.157       .  T
C367        C368   1.407       .  A
C367        C372   1.416   1_565  A
C368        C369   1.405       .  A
C368        H373   1.085       .  S
C369        C370   1.412       .  A
C369        C376   1.444       .  S
C370        C371   1.402   1_565  A
C371        C372   1.403       .  A
C371        H374   1.085       .  S
C372        C375   1.442       .  S
C375        N377   1.157       .  T
C376        N378   1.157       .  T
C379        C380   1.408       .  A
C379        C384   1.418   1_565  A
C380        C381   1.401       .  A
C380        H385   1.084       .  S
C381        C382   1.408       .  A
C381        C388   1.444       .  S
C382        C383   1.398   1_565  A
C383        C384   1.399       .  A
C383        H386   1.085       .  S
C384        C387   1.443       .  S
C387        N389   1.157       .  T
C388        N390   1.157       .  T
C391        C392   1.404   1_565  A
C391        C396   1.415       .  A
C392        C393   1.399       .  A
C392        H397   1.085       .  S
C393        C394   1.410   1_545  A
C393        C400   1.444       .  S
C394        C395   1.402       .  A
C395        C396   1.401       .  A
C395        H398   1.085       .  S
C396        C399   1.444       .  S
C399        N401   1.157       .  T
C400        N402   1.157       .  T
C403        C404   1.407       .  A
C403        C408   1.416   1_565  A
C404        C405   1.402       .  A
C404        H409   1.085       .  S
C405        C406   1.409       .  A
C405        C412   1.445       .  S
C406        C407   1.400   1_565  A
C407        C408   1.401       .  A
C407        H410   1.085       .  S
C408        C411   1.444       .  S
C411        N413   1.157       .  T
C412        N414   1.157       .  T
C415        C416   1.403   1_554  A
C415        C420   1.412       .  A
C416        C417   1.400       .  A
C416        H421   1.085       .  S
C417        C418   1.414   1_556  A
C417        C424   1.445       .  S
C418        C419   1.405       .  A
C419        C420   1.403       .  A
C419        H422   1.085       .  S
C420        C423   1.444       .  S
C423        N425   1.157       .  T
C424        N426   1.157       .  T
C427        C428   1.404   1_554  A
C427        C432   1.414       .  A
C428        C429   1.402       .  A
C428        H433   1.085       .  S
C429        C430   1.414       .  A
C429        C436   1.444       .  S
C430        C431   1.406   1_556  A
C431        C432   1.406       .  A
C431        H434   1.085       .  S
C432        C435   1.444       .  S
C435        N437   1.157       .  T
C436        N438   1.157       .  T
C439        C440   1.405       .  A
C439        C444   1.412   1_554  A
C440        C441   1.406       .  A
C440        H445   1.085       .  S
C441        C442   1.415       .  A
C441        C448   1.444       .  S
C442        C443   1.404   1_554  A
C443        C444   1.400       .  A
C443        H446   1.085       .  S
C444        C447   1.445       .  S
C447        N449   1.157       .  T
C448        N450   1.157       .  T
C451        C452   1.404       .  A
C451        C456   1.412   1_554  A
C452        C453   1.404       .  A
C452        H457   1.085       .  S
C453        C454   1.414       .  A
C453        C460   1.444       .  S
C454        C455   1.403   1_554  A
C455        C456   1.398       .  A
C455        H458   1.085       .  S
C456        C459   1.445       .  S
C459        N461   1.157       .  T
C460        N462   1.157       .  T
