geometry optimzed in LAMMPS
_audit_creation_date              2020-11-30 
_audit_creation_method            'lammps2cif' 
_symmetry_space_group_name_H-M    'P1' 
_symmetry_Int_Tables_number       1 
_symmetry_cell_setting            triclinic 
loop_ 
_symmetry_equiv_pos_as_xyz 
  x,y,z 
_cell_length_a                    19.71808567 
_cell_length_b                    29.001956877990203 
_cell_length_c                    29.47869072053253 
_cell_angle_alpha                 88.13249325875033 
_cell_angle_beta                  36.30764708890205 
_cell_angle_gamma                 91.1756544599942 
loop_ 
_atom_site_label 
_atom_site_type_symbol 
_atom_site_fract_x 
_atom_site_fract_y 
_atom_site_fract_z 
_atom_site_charge 
O1          O  0.12287229  0.95153621  0.95139626    -0.71300
O2          O  0.03253728  0.07108217  0.96783458    -0.71500
O3          O  0.04289013  0.02077756  0.03955872    -0.71400
O4          O  0.11220149  0.00187935  0.87845473    -0.71400
O5          O  0.27059933  0.97240835  0.96277997    -0.71300
O6          O  0.20225865  0.99025549  0.12337443    -0.71300
O7          O  0.19142756  0.04181134  0.05086880    -0.71300
O8          O  0.28221043  0.92192154  0.03353491    -0.71500
V9          V  0.07434835  0.01069389  0.96074436     1.35200
V10         V  0.23982114  0.98235489  0.04115901     1.35200
C11         C  0.05107598  0.91659942  0.99028457     0.78000
C12         C  0.26339728  0.07673197  0.01198118     0.78000
C13         C  0.27834272  0.00780253  0.10850055     0.77900
C14         C  0.03603990  0.98389311  0.89359663     0.77900
C15         C  0.16014972  0.39903960  0.98467958     0.80700
N16         N  0.14719186  0.40687501  0.94629807    -0.77600
C17         C  0.14072019  0.45051854  0.93250893     0.83200
N18         N  0.14656245  0.48637586  0.95773761    -0.77500
C19         C  0.15895269  0.47917822  0.99642343     0.83300
N20         N  0.16635738  0.43539395  0.00962325    -0.79200
C21         C  0.16162484  0.60002332  0.03074657     0.80700
N22         N  0.15698128  0.56215125  0.00743202    -0.77600
C23         C  0.16507996  0.51933032  0.02243966     0.83200
N24         N  0.17712531  0.51439886  0.06178833    -0.77500
C25         C  0.18111797  0.55239886  0.08573457     0.83300
N26         N  0.17347411  0.59483887  0.06987869    -0.79200
O27         O  0.12048477  0.56988035  0.53639168    -0.71300
O28         O  0.03810824  0.44339591  0.55795326    -0.71500
O29         O  0.04734085  0.49500354  0.62768317    -0.71400
O30         O  0.11142727  0.51803905  0.46771731    -0.71400
O31         O  0.28510833  0.49782827  0.38453381    -0.71300
O32         O  0.22605147  0.48173578  0.54254049    -0.71300
O33         O  0.21241540  0.42658334  0.47920370    -0.71300
O34         O  0.29815192  0.55425963  0.44938460    -0.71500
V35         V  0.08260561  0.50625123  0.54601564     1.35200
V36         V  0.25226109  0.49065377  0.46536229     1.35200
C37         C  0.22372131  0.58362714  0.48850824     0.78000
C38         C  0.11096484  0.41355742  0.52255389     0.78000
C39         C  0.12638731  0.48450729  0.61186377     0.77900
C40         C  0.20785702  0.51024709  0.39951874     0.77900
C41         C  0.32973390  0.10287356  0.46792039     0.80700
N42         N  0.33626161  0.06559754  0.49302423    -0.77600
C43         C  0.33084850  0.02207227  0.47954975     0.83200
N44         N  0.31916132  0.01598867  0.44035464    -0.77500
C45         C  0.31305243  0.05343030  0.41488415     0.83300
N46         N  0.31835269  0.09638314  0.42900412    -0.79200
C47         C  0.01239470  0.90238346  0.51976757     0.80700
N48         N  0.02440059  0.91138496  0.55803521    -0.77600
C49         C  0.02685307  0.95526482  0.57130165     0.83200
N50         N  0.01749591  0.99058816  0.54573509    -0.77500
C51         C  0.00579317  0.98240985  0.50709608     0.83300
N52         N  0.00299113  0.93811085  0.49414520    -0.79200
C53         C  0.27956288  0.71527671  0.46634023     0.16400
C54         C  0.28439713  0.76363254  0.45700580    -0.32600
C55         C  0.31188483  0.79111200  0.47969771     0.20800
C56         C  0.33450822  0.77111790  0.50960478     0.03000
C57         C  0.33138952  0.72296283  0.51782302    -0.22300
C58         C  0.30372609  0.69557117  0.49540407     0.12200
S59         S  0.23891894  0.67579725  0.44824892    -0.06000
C60         C  0.25558838  0.63260539  0.47962832    -0.09400
C61         C  0.29170674  0.64808337  0.50212062    -0.26000
S62         S  0.02722415  0.80968241  0.53736921    -0.03200
C63         C  0.34089518  0.85368389  0.50864171    -0.16700
C64         C  0.31595110  0.83870211  0.47861287    -0.14700
H65         H  0.26516261  0.77909030  0.43461580     0.20700
H66         H  0.01330823  0.70749795  0.54274022     0.16700
H67         H  0.30374089  0.62581278  0.52519579     0.19200
H68         H  0.29898936  0.86121210  0.45890424     0.12600
C69         C  0.05873401  0.28293149  0.53544828     0.16400
C70         C  0.05518107  0.23437656  0.54096600    -0.32600
C71         C  0.02976947  0.20953979  0.51525403     0.20800
C72         C  0.00822817  0.23220482  0.48596060     0.03000
C73         C  0.01005023  0.28046411  0.48158280    -0.22300
C74         C  0.03502691  0.30518745  0.50732543     0.12200
S75         S  0.09736283  0.31979488  0.55714849    -0.06000
C76         C  0.08004664  0.36519143  0.52866649    -0.09400
C77         C  0.04510000  0.35237008  0.50462260    -0.26000
S78         S  0.31762784  0.19676244  0.45443301    -0.03200
C79         C  0.00268667  0.15043200  0.48111734    -0.16700
C80         C  0.02628490  0.16231660  0.51291999    -0.14700
H81         H  0.07353716  0.21682858  0.56290378     0.20700
H82         H  0.32923113  0.29807683  0.45701088     0.16700
H83         H  0.03320080  0.37636567  0.48279144     0.19200
H84         H  0.04209148  0.13792771  0.53186675     0.12600
C85         C  0.19803449  0.56239585  0.20567247     0.16400
C86         C  0.19992360  0.57801771  0.24902834    -0.32600
C87         C  0.21612528  0.54566667  0.27543444     0.20800
C88         C  0.23055267  0.49971674  0.25910984     0.03000
C89         C  0.22883342  0.48404764  0.21544041    -0.22300
C90         C  0.21187710  0.51649935  0.18930507     0.12200
S91         S  0.17845237  0.59653371  0.16941480    -0.06000
C92         C  0.19007447  0.54877362  0.13069728    -0.09400
C93         C  0.20698381  0.50834129  0.14628028    -0.26000
S94         S  0.24324646  0.46560015  0.30007100    -0.03200
C95         C  0.22688444  0.51368871  0.34026603    -0.16700
C96         C  0.21422614  0.55389033  0.32187577    -0.14700
H97         H  0.18776018  0.61375427  0.26246595     0.20700
H98         H  0.23914565  0.44816482  0.20302729     0.16700
H99         H  0.21584003  0.47502228  0.12691589     0.19200
H100        H  0.19931578  0.58687719  0.34412044     0.12600
C101        C  0.11805009  0.49091610  0.82013978     0.16400
C102        C  0.11179631  0.51616170  0.78239099    -0.32600
C103        C  0.10529873  0.49127978  0.74589073     0.20800
C104        C  0.10404229  0.44336154  0.74746089     0.03000
C105        C  0.10968982  0.41813986  0.78555533    -0.21900
C106        C  0.11702078  0.44305192  0.82155720     0.12200
S107        S  0.12880498  0.51465610  0.86647014    -0.06000
C108        C  0.13071941  0.45942990  0.88871876    -0.09400
C109        C  0.12459132  0.42477642  0.86066322    -0.26000
S110        S  0.10239764  0.41975734  0.69609035    -0.03200
C111        C  0.10457615  0.47500974  0.67182789    -0.16700
C112        C  0.10532657  0.50968598  0.70250705    -0.14700
H113        H  0.11379888  0.55356539  0.78049230     0.20700
H114        H  0.10982647  0.38079506  0.78628501     0.16700
H115        H  0.12612009  0.38819451  0.86813798     0.19200
H116        H  0.11143897  0.54636461  0.69049738     0.12600
C117        C  0.25368467  0.99732804  0.25068538     0.16400
C118        C  0.25664508  0.98190157  0.29470686    -0.32600
C119        C  0.27797143  0.01539268  0.31615098     0.20800
C120        C  0.96006452  0.06210335  0.29577831     0.03000
C121        C  0.95770385  0.07746375  0.25160540    -0.22300
C122        C  0.93822012  0.04404398  0.22924467     0.12200
S123        S  0.23656454  0.96223725  0.21456798    -0.06000
C124        C  0.25680485  0.01096195  0.16875736    -0.09400
C125        C  0.93982222  0.05206905  0.18235023    -0.26000
S126        S  0.98138951  0.09753221  0.32879577    -0.03200
C127        C  0.30354782  0.04907061  0.37047655    -0.16700
C128        C  0.28493279  0.00758183  0.35854945    -0.14700
H129        H  0.24428373  0.94542939  0.31071671     0.20700
H130        H  0.97175383  0.11389621  0.23464831     0.16700
H131        H  0.95730000  0.08577178  0.15638868     0.19200
H132        H  0.27518919  0.97375305  0.38064488     0.12600
C133        C  0.39509409  0.94657920  0.75779152     0.16400
C134        C  0.39018041  0.92194431  0.72033677    -0.32600
C135        C  0.38474472  0.94734311  0.68217747     0.20800
C136        C  0.05126943  0.99516932  0.68099093     0.03000
C137        C  0.05849806  0.01992974  0.71718508    -0.22300
C138        C  0.06328864  0.99449359  0.75577993     0.12200
S139        S  0.39198972  0.92178926  0.81278245    -0.06000
C140        C  0.05962251  0.97649280  0.83310334    -0.09400
C141        C  0.06299286  0.01192748  0.79860828    -0.26000
S142        S  0.03969775  0.01927697  0.63394608    -0.03200
C143        C  0.03735048  0.96434485  0.61438494    -0.16700
C144        C  0.37733830  0.92948847  0.64378091    -0.14700
H145        H  0.38841322  0.88454515  0.72211508     0.20700
H146        H  0.05774827  0.05724918  0.71678435     0.16700
H147        H  0.05878852  0.04815645  0.80796903     0.19200
H148        H  0.37607440  0.89294333  0.63783786     0.12600
C149        C  0.13351467  0.80490387  0.00461084     0.16400
C150        C  0.16199764  0.77058294  0.02081255    -0.32600
C151        C  0.15081927  0.72461339  0.01330397     0.20800
C152        C  0.11459740  0.71314424  0.98954195     0.03000
C153        C  0.08477619  0.74747049  0.97411456    -0.22300
C154        C  0.09390394  0.79347865  0.98305226     0.12200
S155        S  0.13886281  0.86255362  0.01216181    -0.06000
C156        C  0.08408276  0.87118509  0.98822522    -0.09400
C157        C  0.06423111  0.83155698  0.97425814    -0.26000
S158        S  0.10758423  0.65515753  0.98374868    -0.03200
C159        C  0.15094335  0.64635004  0.01572167    -0.16700
C160        C  0.17107178  0.68649826  0.02881969    -0.14700
H161        H  0.18961220  0.77920328  0.03987877     0.20700
H162        H  0.05460817  0.73868492  0.95677726     0.16700
H163        H  0.36267882  0.83078694  0.95904303     0.19200
H164        H  0.19817450  0.68771923  0.04932768     0.12600
C165        C  0.20846437  0.28203112  0.01787049     0.16400
C166        C  0.23873892  0.24595794  0.03087434    -0.32600
C167        C  0.22529841  0.20072538  0.02227369     0.20800
C168        C  0.18108910  0.19161344  0.00334688     0.03000
C169        C  0.15198719  0.22773457  0.98955392    -0.22300
C170        C  0.16730061  0.27302322  0.99686530     0.12200
S171        S  0.22017707  0.33938776  0.02403253    -0.06000
C172        C  0.17098062  0.35146777  0.99666803    -0.09400
C173        C  0.14636467  0.31272217  0.98415210    -0.26000
S174        S  0.17113590  0.13436190  0.99587366    -0.03200
C175        C  0.23022362  0.12287311  0.01625809    -0.16700
C176        C  0.25480836  0.16133429  0.02896498    -0.14700
H177        H  0.27205816  0.25291025  0.04646894     0.20700
H178        H  0.12073249  0.22090553  0.97253434     0.16700
H179        H  0.11520514  0.31356585  0.96634202     0.19200
H180        H  0.96004315  0.16044214  0.04156092     0.12600
O181        O  0.45620560  0.95153621  0.95139620    -0.71300
O182        O  0.36587063  0.07108218  0.96783460    -0.71500
O183        O  0.37622338  0.02077757  0.03955872    -0.71400
O184        O  0.44553481  0.00187936  0.87845473    -0.71400
O185        O  0.60393256  0.97240837  0.96277996    -0.71300
O186        O  0.53559191  0.99025553  0.12337442    -0.71300
O187        O  0.52476086  0.04181136  0.05086875    -0.71300
O188        O  0.61554374  0.92192154  0.03353481    -0.71500
V189        V  0.40768164  0.01069388  0.96074436     1.35200
V190        V  0.57315440  0.98235491  0.04115898     1.35200
C191        C  0.38440926  0.91659942  0.99028461     0.78000
C192        C  0.59673061  0.07673197  0.01198120     0.78000
C193        C  0.61167600  0.00780250  0.10850056     0.77900
C194        C  0.36937325  0.98389313  0.89359661     0.77900
C195        C  0.49348298  0.39903960  0.98467963     0.80700
N196        N  0.48052545  0.40687503  0.94629791    -0.77600
C197        C  0.47405396  0.45051857  0.93250867     0.83200
N198        N  0.47989613  0.48637588  0.95773739    -0.77500
C199        C  0.49228604  0.47917824  0.99642340     0.83300
N200        N  0.49969052  0.43539394  0.00962336    -0.79200
C201        C  0.49495824  0.60002332  0.03074655     0.80700
N202        N  0.49031447  0.56215127  0.00743212    -0.77600
C203        C  0.49841311  0.51933032  0.02243976     0.83200
N204        N  0.51045852  0.51439885  0.06178839    -0.77500
C205        C  0.51445143  0.55239884  0.08573451     0.83300
N206        N  0.50680770  0.59483886  0.06987857    -0.79200
O207        O  0.45381825  0.56988033  0.53639169    -0.71300
O208        O  0.37144161  0.44339587  0.55795332    -0.71500
O209        O  0.38067437  0.49500353  0.62768312    -0.71400
O210        O  0.44476047  0.51803903  0.46771740    -0.71400
O211        O  0.61844154  0.49782827  0.38453384    -0.71300
O212        O  0.55938497  0.48173576  0.54254043    -0.71300
O213        O  0.54574881  0.42658330  0.47920367    -0.71300
O214        O  0.63148539  0.55425960  0.44938456    -0.71500
V215        V  0.41593901  0.50625121  0.54601566     1.35200
V216        V  0.58559450  0.49065375  0.46536226     1.35200
C217        C  0.55705481  0.58362712  0.48850820     0.78000
C218        C  0.44429823  0.41355738  0.52255391     0.78000
C219        C  0.45972079  0.48450727  0.61186374     0.77900
C220        C  0.54119021  0.51024710  0.39951882     0.77900
C221        C  0.66306697  0.10287357  0.46792045     0.80700
N222        N  0.66959478  0.06559756  0.49302425    -0.77600
C223        C  0.66418185  0.02207228  0.47954965     0.83200
N224        N  0.65249475  0.01598868  0.44035451    -0.77500
C225        C  0.64638562  0.05343029  0.41488415     0.83300
N226        N  0.65168574  0.09638313  0.42900420    -0.79200
C227        C  0.34572795  0.90238343  0.51976765     0.80700
N228        N  0.35773377  0.91138490  0.55803533    -0.77600
C229        C  0.36018654  0.95526474  0.57130164     0.83200
N230        N  0.35082950  0.99058812  0.54573502    -0.77500
C231        C  0.33912669  0.98240983  0.50709604     0.83300
N232        N  0.33632459  0.93811085  0.49414517    -0.79200
C233        C  0.61289632  0.71527672  0.46634012     0.16400
C234        C  0.61773031  0.76363254  0.45700588    -0.32600
C235        C  0.64521770  0.79111201  0.47969797     0.20800
C236        C  0.66784089  0.77111789  0.50960518     0.03000
C237        C  0.66472223  0.72296283  0.51782338    -0.22300
C238        C  0.63705915  0.69557119  0.49540421     0.12200
S239        S  0.57225309  0.67579723  0.44824837    -0.06000
C240        C  0.58892197  0.63260538  0.47962818    -0.09400
C241        C  0.62503986  0.64808339  0.50212078    -0.26000
S242        S  0.36055765  0.80968240  0.53736915    -0.03200
C243        C  0.67422798  0.85368388  0.50864206    -0.16700
C244        C  0.64928421  0.83870212  0.47861302    -0.14700
H245        H  0.59849600  0.77909035  0.43461563     0.20700
H246        H  0.34664132  0.70749794  0.54274040     0.16700
H247        H  0.63707360  0.62581285  0.52519617     0.19200
H248        H  0.63232316  0.86121215  0.45890397     0.12600
C249        C  0.39206748  0.28293148  0.53544828     0.16400
C250        C  0.38851447  0.23437651  0.54096607    -0.32600
C251        C  0.36310286  0.20953979  0.51525401     0.20800
C252        C  0.34156170  0.23220482  0.48596055     0.03000
C253        C  0.34338373  0.28046412  0.48158278    -0.22300
C254        C  0.36836029  0.30518742  0.50732552     0.12200
S255        S  0.43069637  0.31979486  0.55714847    -0.06000
C256        C  0.41337996  0.36519139  0.52866659    -0.09400
C257        C  0.37843306  0.35237005  0.50462285    -0.26000
S258        S  0.65096101  0.19676243  0.45443302    -0.03200
C259        C  0.33602008  0.15043201  0.48111731    -0.16700
C260        C  0.35961823  0.16231657  0.51292003    -0.14700
H261        H  0.40687030  0.21682861  0.56290383     0.20700
H262        H  0.66256496  0.29807684  0.45701044     0.16700
H263        H  0.36653368  0.37636559  0.48279185     0.19200
H264        H  0.37542463  0.13792776  0.53186681     0.12600
C265        C  0.53136788  0.56239587  0.20567244     0.16400
C266        C  0.53325682  0.57801773  0.24902839    -0.32600
C267        C  0.54945845  0.54566666  0.27543453     0.20800
C268        C  0.56388591  0.49971674  0.25910993     0.03000
C269        C  0.56216685  0.48404764  0.21544040    -0.22300
C270        C  0.54521065  0.51649937  0.18930498     0.12200
S271        S  0.51178554  0.59653368  0.16941486    -0.06000
C272        C  0.52340796  0.54877358  0.13069720    -0.09400
C273        C  0.54031740  0.50834128  0.14628018    -0.26000
S274        S  0.57657994  0.46560017  0.30007095    -0.03200
C275        C  0.56021767  0.51368872  0.34026608    -0.16700
C276        C  0.54755950  0.55389036  0.32187574    -0.14700
H277        H  0.52109335  0.61375428  0.26246600     0.20700
H278        H  0.57247917  0.44816483  0.20302725     0.16700
H279        H  0.54917366  0.47502225  0.12691583     0.19200
H280        H  0.53264936  0.58687724  0.34412027     0.12600
C281        C  0.45138359  0.49091610  0.82013970     0.16400
C282        C  0.44512978  0.51616169  0.78239093    -0.32600
C283        C  0.43863201  0.49127978  0.74589079     0.20800
C284        C  0.43737572  0.44336154  0.74746089     0.03000
C285        C  0.44302339  0.41813987  0.78555526    -0.21900
C286        C  0.45035433  0.44305192  0.82155712     0.12200
S287        S  0.46213814  0.51465612  0.86647022    -0.06000
C288        C  0.46405281  0.45942993  0.88871874    -0.09400
C289        C  0.45792469  0.42477643  0.86066325    -0.26000
S290        S  0.43573118  0.41975733  0.69609032    -0.03200
C291        C  0.43790947  0.47500971  0.67182794    -0.16700
C292        C  0.43865976  0.50968596  0.70250713    -0.14700
H293        H  0.44713237  0.55356539  0.78049222     0.20700
H294        H  0.44316010  0.38079506  0.78628494     0.16700
H295        H  0.45945346  0.38819451  0.86813804     0.19200
H296        H  0.44477235  0.54636457  0.69049730     0.12600
C297        C  0.58701813  0.99732804  0.25068532     0.16400
C298        C  0.58997856  0.98190158  0.29470678    -0.32600
C299        C  0.61130472  0.01539270  0.31615096     0.20800
C300        C  0.29339788  0.06210335  0.29577831     0.03000
C301        C  0.29103720  0.07746375  0.25160540    -0.22300
C302        C  0.27155348  0.04404398  0.22924467     0.12200
S303        S  0.56989813  0.96223723  0.21456789    -0.06000
C304        C  0.59013813  0.01096190  0.16875739    -0.09400
C305        C  0.27315559  0.05206905  0.18235021    -0.26000
S306        S  0.31472287  0.09753221  0.32879577    -0.03200
C307        C  0.63688094  0.04907062  0.37047661    -0.16700
C308        C  0.61826595  0.00758182  0.35854949    -0.14700
H309        H  0.57761733  0.94542940  0.31071658     0.20700
H310        H  0.30508718  0.11389621  0.23464831     0.16700
H311        H  0.29063334  0.08577179  0.15638868     0.19200
H312        H  0.60852242  0.97375306  0.38064485     0.12600
C313        C  0.72842739  0.94657921  0.75779150     0.16400
C314        C  0.72351371  0.92194432  0.72033674    -0.32600
C315        C  0.71807810  0.94734314  0.68217740     0.20800
C316        C  0.38460260  0.99516928  0.68099103     0.03000
C317        C  0.39183121  0.01992972  0.71718517    -0.22300
C318        C  0.39662190  0.99449358  0.75577996     0.12200
S319        S  0.72532281  0.92178924  0.81278252    -0.06000
C320        C  0.39295593  0.97649283  0.83310330    -0.09400
C321        C  0.39632608  0.01192749  0.79860833    -0.26000
S322        S  0.37303125  0.01927693  0.63394600    -0.03200
C323        C  0.37068402  0.96434481  0.61438487    -0.16700
C324        C  0.71067147  0.92948852  0.64378095    -0.14700
H325        H  0.72174633  0.88454516  0.72211517     0.20700
H326        H  0.39108137  0.05724916  0.71678444     0.16700
H327        H  0.39212148  0.04815644  0.80796920     0.19200
H328        H  0.70940740  0.89294335  0.63783798     0.12600
C329        C  0.46684794  0.80490386  0.00461087     0.16400
C330        C  0.49533091  0.77058292  0.02081251    -0.32600
C331        C  0.48415253  0.72461340  0.01330399     0.20800
C332        C  0.44793059  0.71314422  0.98954200     0.03000
C333        C  0.41810936  0.74747048  0.97411461    -0.22300
C334        C  0.42723716  0.79347865  0.98305229     0.12200
S335        S  0.47219625  0.86255360  0.01216177    -0.06000
C336        C  0.41741611  0.87118510  0.98822524    -0.09400
C337        C  0.39756445  0.83155701  0.97425813    -0.26000
S338        S  0.44091766  0.65515752  0.98374865    -0.03200
C339        C  0.48427670  0.64635005  0.01572170    -0.16700
C340        C  0.50440513  0.68649828  0.02881966    -0.14700
H341        H  0.52294571  0.77920330  0.03987872     0.20700
H342        H  0.38794137  0.73868492  0.95677727     0.16700
H343        H  0.69601203  0.83078685  0.95904307     0.19200
H344        H  0.53150805  0.68771930  0.04932759     0.12600
C345        C  0.54179773  0.28203112  0.01787049     0.16400
C346        C  0.57207226  0.24595795  0.03087438    -0.32600
C347        C  0.55863179  0.20072539  0.02227369     0.20800
C348        C  0.51442251  0.19161344  0.00334690     0.03000
C349        C  0.48532052  0.22773455  0.98955391    -0.22300
C350        C  0.50063399  0.27302323  0.99686531     0.12200
S351        S  0.55351051  0.33938777  0.02403249    -0.06000
C352        C  0.50431391  0.35146777  0.99666809    -0.09400
C353        C  0.47969803  0.31272217  0.98415209    -0.26000
S354        S  0.50446940  0.13436189  0.99587365    -0.03200
C355        C  0.56355705  0.12287313  0.01625811    -0.16700
C356        C  0.58814184  0.16133432  0.02896496    -0.14700
H357        H  0.60539140  0.25291024  0.04646898     0.20700
H358        H  0.45406603  0.22090555  0.97253439     0.16700
H359        H  0.44853863  0.31356585  0.96634198     0.19200
H360        H  0.29337651  0.16044214  0.04156092     0.12600
O361        O  0.78953883  0.95153620  0.95139631    -0.71300
O362        O  0.69920396  0.07108215  0.96783460    -0.71500
O363        O  0.70955667  0.02077753  0.03955874    -0.71400
O364        O  0.77886807  0.00187934  0.87845475    -0.71400
O365        O  0.93726599  0.97240834  0.96277999    -0.71300
O366        O  0.86892539  0.99025551  0.12337440    -0.71300
O367        O  0.85809419  0.04181133  0.05086882    -0.71300
O368        O  0.94887716  0.92192155  0.03353486    -0.71500
V369        V  0.74101492  0.01069386  0.96074438     1.35200
V370        V  0.90648784  0.98235490  0.04115900     1.35200
C371        C  0.71774253  0.91659942  0.99028460     0.78000
C372        C  0.93006392  0.07673196  0.01198117     0.78000
C373        C  0.94500944  0.00780253  0.10850054     0.77900
C374        C  0.70270650  0.98389311  0.89359662     0.77900
C375        C  0.82681637  0.39903960  0.98467957     0.80700
N376        N  0.81385866  0.40687501  0.94629796    -0.77600
C377        C  0.80738712  0.45051855  0.93250875     0.83200
N378        N  0.81322925  0.48637586  0.95773750    -0.77500
C379        C  0.82561934  0.47917822  0.99642341     0.83300
N380        N  0.83302401  0.43539395  0.00962324    -0.79200
C381        C  0.82829149  0.60002332  0.03074657     0.80700
N382        N  0.82364792  0.56215125  0.00743202    -0.77600
C383        C  0.83174659  0.51933032  0.02243966     0.83200
N384        N  0.84379195  0.51439886  0.06178833    -0.77500
C385        C  0.84778461  0.55239886  0.08573457     0.83300
N386        N  0.84014076  0.59483887  0.06987869    -0.79200
O387        O  0.78715139  0.56988033  0.53639168    -0.71300
O388        O  0.70477491  0.44339585  0.55795326    -0.71500
O389        O  0.71400749  0.49500352  0.62768317    -0.71400
O390        O  0.77809389  0.51803902  0.46771732    -0.71400
O391        O  0.95177497  0.49782827  0.38453381    -0.71300
O392        O  0.89271811  0.48173578  0.54254048    -0.71300
O393        O  0.87908213  0.42658333  0.47920366    -0.71300
O394        O  0.96481854  0.55425963  0.44938460    -0.71500
V395        V  0.74927224  0.50625119  0.54601565     1.35200
V396        V  0.91892774  0.49065377  0.46536229     1.35200
C397        C  0.89038793  0.58362713  0.48850825     0.78000
C398        C  0.77763156  0.41355737  0.52255390     0.78000
C399        C  0.79305395  0.48450729  0.61186377     0.77900
C400        C  0.87452367  0.51024709  0.39951875     0.77900
C401        C  0.99640048  0.10287357  0.46792040     0.80700
N402        N  0.00292812  0.06559753  0.49302427    -0.77600
C403        C  0.99751505  0.02207226  0.47954975     0.83200
N404        N  0.98582795  0.01598868  0.44035461    -0.77500
C405        C  0.97971908  0.05343030  0.41488411     0.83300
N406        N  0.98501933  0.09638314  0.42900410    -0.79200
C407        C  0.67906124  0.90238346  0.51976768     0.80700
N408        N  0.69106721  0.91138496  0.55803525    -0.77600
C409        C  0.69351973  0.95526482  0.57130167     0.83200
N410        N  0.68416258  0.99058817  0.54573510    -0.77500
C411        C  0.67245989  0.98240986  0.50709605     0.83300
N412        N  0.66965777  0.93811084  0.49414523    -0.79200
C413        C  0.94622949  0.71527671  0.46634024     0.16400
C414        C  0.95106362  0.76363253  0.45700589    -0.32600
C415        C  0.97855110  0.79111200  0.47969792     0.20800
C416        C  0.00117458  0.77111790  0.50960494     0.03000
C417        C  0.99805620  0.72296284  0.51782298    -0.22300
C418        C  0.97039273  0.69557117  0.49540406     0.12200
S419        S  0.90558557  0.67579725  0.44824892    -0.06000
C420        C  0.92225502  0.63260538  0.47962833    -0.09400
C421        C  0.95837340  0.64808337  0.50212061    -0.26000
S422        S  0.69389006  0.80968236  0.53736973    -0.03200
C423        C  0.00756174  0.85368391  0.50864175    -0.16700
C424        C  0.98261755  0.83870212  0.47861297    -0.14700
H425        H  0.93182926  0.77909030  0.43461578     0.20700
H426        H  0.67997378  0.70749793  0.54274088     0.16700
H427        H  0.97040755  0.62581278  0.52519578     0.19200
H428        H  0.96565608  0.86121211  0.45890417     0.12600
C429        C  0.72540076  0.28293149  0.53544828     0.16400
C430        C  0.72184781  0.23437656  0.54096597    -0.32600
C431        C  0.69643645  0.20953980  0.51525381     0.20800
C432        C  0.67489538  0.23220484  0.48596024     0.03000
C433        C  0.67671743  0.28046414  0.48158247    -0.22300
C434        C  0.70169382  0.30518743  0.50732534     0.12200
S435        S  0.76402976  0.31979484  0.55714844    -0.06000
C436        C  0.74671349  0.36519137  0.52866649    -0.09400
C437        C  0.71176694  0.35237008  0.50462249    -0.26000
S438        S  0.98429443  0.19676242  0.45443301    -0.03200
C439        C  0.66935325  0.15043201  0.48111734    -0.16700
C440        C  0.69295160  0.16231660  0.51291993    -0.14700
H441        H  0.74020369  0.21682858  0.56290386     0.20700
H442        H  0.99589774  0.29807681  0.45701076     0.16700
H443        H  0.69986808  0.37636562  0.48279126     0.19200
H444        H  0.70875797  0.13792773  0.53186680     0.12600
C445        C  0.86470113  0.56239585  0.20567247     0.16400
C446        C  0.86659024  0.57801771  0.24902834    -0.32600
C447        C  0.88279192  0.54566667  0.27543444     0.20800
C448        C  0.89721932  0.49971674  0.25910984     0.03000
C449        C  0.89550006  0.48404764  0.21544041    -0.22300
C450        C  0.87854375  0.51649935  0.18930506     0.12200
S451        S  0.84511902  0.59653371  0.16941480    -0.06000
C452        C  0.85674111  0.54877361  0.13069727    -0.09400
C453        C  0.87365046  0.50834129  0.14628027    -0.26000
S454        S  0.90991310  0.46560015  0.30007100    -0.03200
C455        C  0.89355108  0.51368871  0.34026603    -0.16700
C456        C  0.88089280  0.55389034  0.32187576    -0.14700
H457        H  0.85442682  0.61375427  0.26246596     0.20700
H458        H  0.90581230  0.44816482  0.20302729     0.16700
H459        H  0.88250667  0.47502228  0.12691589     0.19200
H460        H  0.86598244  0.58687719  0.34412043     0.12600
C461        C  0.78471672  0.49091611  0.82013978     0.16400
C462        C  0.77846296  0.51616170  0.78239099    -0.32600
C463        C  0.77196537  0.49127978  0.74589073     0.20800
C464        C  0.77070893  0.44336154  0.74746089     0.03000
C465        C  0.77635646  0.41813986  0.78555532    -0.21900
C466        C  0.78368741  0.44305192  0.82155720     0.12200
S467        S  0.79547163  0.51465610  0.86647013    -0.06000
C468        C  0.79738617  0.45942991  0.88871869    -0.09400
C469        C  0.79125797  0.42477642  0.86066321    -0.26000
S470        S  0.76906427  0.41975734  0.69609036    -0.03200
C471        C  0.77124280  0.47500974  0.67182788    -0.16700
C472        C  0.77199328  0.50968599  0.70250701    -0.14700
H473        H  0.78046554  0.55356539  0.78049229     0.20700
H474        H  0.77649311  0.38079506  0.78628501     0.16700
H475        H  0.79278680  0.38819451  0.86813793     0.19200
H476        H  0.77810582  0.54636460  0.69049728     0.12600
C477        C  0.92035132  0.99732804  0.25068538     0.16400
C478        C  0.92331173  0.98190157  0.29470686    -0.32600
C479        C  0.94463808  0.01539268  0.31615098     0.20800
C480        C  0.62673116  0.06210336  0.29577827     0.03000
C481        C  0.62437041  0.07746376  0.25160541    -0.22300
C482        C  0.60488667  0.04404398  0.22924471     0.12200
S483        S  0.90323118  0.96223725  0.21456799    -0.06000
C484        C  0.92347146  0.01096195  0.16875740    -0.09400
C485        C  0.60648869  0.05206903  0.18235030    -0.26000
S486        S  0.64805598  0.09753222  0.32879582    -0.03200
C487        C  0.97021447  0.04907062  0.37047654    -0.16700
C488        C  0.95159943  0.00758183  0.35854944    -0.14700
H489        H  0.91095037  0.94542939  0.31071670     0.20700
H490        H  0.63842031  0.11389624  0.23464833     0.16700
H491        H  0.62396626  0.08577176  0.15638884     0.19200
H492        H  0.94185584  0.97375305  0.38064488     0.12600
C493        C  0.06176075  0.94657921  0.75779150     0.16400
C494        C  0.05684707  0.92194433  0.72033674    -0.32600
C495        C  0.05141146  0.94734313  0.68217739     0.20800
C496        C  0.71793608  0.99516931  0.68099093     0.03000
C497        C  0.72516470  0.01992974  0.71718507    -0.22300
C498        C  0.72995529  0.99449359  0.75577992     0.12200
S499        S  0.05865616  0.92178924  0.81278253    -0.06000
C500        C  0.72628920  0.97649280  0.83310331    -0.09400
C501        C  0.72965951  0.01192748  0.79860828    -0.26000
S502        S  0.70636439  0.01927696  0.63394608    -0.03200
C503        C  0.70401712  0.96434486  0.61438495    -0.16700
C504        C  0.04400483  0.92948854  0.64378095    -0.14700
H505        H  0.05507968  0.88454515  0.72211517     0.20700
H506        H  0.72441492  0.05724918  0.71678434     0.16700
H507        H  0.72545515  0.04815645  0.80796904     0.19200
H508        H  0.04274076  0.89294326  0.63783796     0.12600
C509        C  0.80018131  0.80490387  0.00461084     0.16400
C510        C  0.82866428  0.77058294  0.02081255    -0.32600
C511        C  0.81748591  0.72461339  0.01330397     0.20800
C512        C  0.78126404  0.71314424  0.98954195     0.03000
C513        C  0.75144284  0.74747049  0.97411456    -0.22300
C514        C  0.76057059  0.79347865  0.98305226     0.12200
S515        S  0.80552945  0.86255362  0.01216181    -0.06000
C516        C  0.75074933  0.87118509  0.98822525    -0.09400
C517        C  0.73089775  0.83155698  0.97425815    -0.26000
S518        S  0.77425088  0.65515753  0.98374868    -0.03200
C519        C  0.81760999  0.64635004  0.01572167    -0.16700
C520        C  0.83773842  0.68649826  0.02881969    -0.14700
H521        H  0.85627884  0.77920328  0.03987877     0.20700
H522        H  0.72127482  0.73868492  0.95677725     0.16700
H523        H  0.02934539  0.83078685  0.95904307     0.19200
H524        H  0.86484115  0.68771923  0.04932768     0.12600
C525        C  0.87513102  0.28203112  0.01787049     0.16400
C526        C  0.90540556  0.24595794  0.03087434    -0.32600
C527        C  0.89196505  0.20072538  0.02227369     0.20800
C528        C  0.84775574  0.19161345  0.00334688     0.03000
C529        C  0.81865384  0.22773457  0.98955392    -0.22300
C530        C  0.83396725  0.27302323  0.99686530     0.12200
S531        S  0.88684371  0.33938777  0.02403252    -0.06000
C532        C  0.83764724  0.35146777  0.99666804    -0.09400
C533        C  0.81303132  0.31272217  0.98415210    -0.26000
S534        S  0.83780254  0.13436190  0.99587366    -0.03200
C535        C  0.89689024  0.12287311  0.01625810    -0.16700
C536        C  0.92147499  0.16133429  0.02896498    -0.14700
H537        H  0.93872481  0.25291025  0.04646894     0.20700
H538        H  0.78739914  0.22090554  0.97253434     0.16700
H539        H  0.78187178  0.31356585  0.96634202     0.19200
H540        H  0.62670997  0.16044221  0.04156090     0.12600
loop_ 
_geom_bond_atom_site_label_1 
_geom_bond_atom_site_label_2 
_geom_bond_distance 
_geom_bond_site_symmetry_2 
_ccdc_geom_bond_type 
O1            V9   1.900   1_565  S
O1           C11   1.263       .  A
O2            V9   1.896       .  S
O2          C372   1.262   1_456  A
O3            V9   1.897   1_554  S
O3          C373   1.263   1_455  A
O4            V9   1.907       .  S
O4           C14   1.264   1_545  A
O5           V10   1.892   1_556  S
O5          C194   1.261       .  A
O6           V10   1.904       .  S
O6           C13   1.263   1_565  A
O7           V10   1.904   1_545  S
O7           C12   1.264       .  A
O8           V10   1.898       .  S
O8          C191   1.263   1_554  A
V9          V370   2.089   1_446  T
V10         V189   2.089   1_564  T
C11         O368   1.263   1_456  A
C11         C156   1.462       .  S
C12         O182   1.262   1_554  A
C12         C175   1.466       .  S
C13         O183   1.263       .  A
C13         C124   1.463       .  S
C14         O365   1.261   1_455  A
C14         C140   1.461       .  S
C15         C172   1.475       .  S
C15          N16   1.360       .  A
C15          N20   1.363   1_556  A
N16          C17   1.357       .  A
C17         C108   1.471       .  S
C17          N18   1.353       .  A
N18          C19   1.356       .  A
C19          C23   1.470   1_556  S
C19          N20   1.361   1_556  A
C21         C159   1.473       .  S
C21          N22   1.354       .  A
C21          N26   1.354       .  A
N22          C23   1.360       .  A
C23          N24   1.363       .  A
N24          C25   1.362       .  A
C25          C92   1.472       .  S
C25          N26   1.356       .  A
O27          V35   1.900       .  S
O27          C37   1.263       .  A
O28          V35   1.900       .  S
O28          C38   1.263       .  A
O29          V35   1.905       .  S
O29          C39   1.264       .  A
O30          V35   1.896       .  S
O30          C40   1.263       .  A
O31          V36   1.901       .  S
O31          C40   1.262       .  A
O32          V36   1.890       .  S
O32          C39   1.261       .  A
O33          V36   1.900       .  S
O33          C38   1.263       .  A
O34          V36   1.906       .  S
O34          C37   1.264       .  A
V35          V36   2.088       .  T
C37          C60   1.468       .  S
C38          C76   1.464       .  S
C39         C111   1.457       .  S
C40          C95   1.460       .  S
C41         C259   1.475       .  S
C41          N42   1.356       .  A
C41          N46   1.352       .  A
N42          C43   1.363       .  A
C43         C231   1.473   1_545  S
C43          N44   1.364       .  A
N44          C45   1.362       .  A
C45         C127   1.473       .  S
C45          N46   1.354       .  A
C47         C423   1.479       .  S
C47          N48   1.358       .  A
C47          N52   1.364       .  A
N48          C49   1.355       .  A
C49         C143   1.473       .  S
C49          N50   1.354       .  A
N50          C51   1.359       .  A
C51         C403   1.473   1_465  S
C51          N52   1.365       .  A
C53          S59   1.711       .  A
C53          C58   1.387       .  A
C53          C54   1.407       .  A
C54          C55   1.406       .  A
C54          H65   1.082       .  S
C55          C64   1.379       .  A
C55          C56   1.387       .  A
C56         S242   1.702       .  A
C56          C57   1.401       .  A
C57          C58   1.401       .  A
C57         H246   1.082       .  S
C58          C61   1.373       .  A
S59          C60   1.722       .  A
C60          C61   1.384       .  A
C61          H67   1.084       .  S
S62         C416   1.702       .  A
S62         C423   1.725       .  A
C63         C227   1.479       .  S
C63         S242   1.725       .  A
C63          C64   1.390       .  A
C64          H68   1.083       .  S
H66         C417   1.082   1_455  S
C69          S75   1.711       .  A
C69          C74   1.387       .  A
C69          C70   1.406       .  A
C70          C71   1.406       .  A
C70          H81   1.082       .  S
C71          C80   1.377       .  A
C71          C72   1.387       .  A
C72         S438   1.701   1_455  A
C72          C73   1.398       .  A
C73          C74   1.399       .  A
C73         H442   1.082   1_455  S
C74          C77   1.369       .  A
S75          C76   1.721       .  A
C76          C77   1.382       .  A
C77          H83   1.084       .  S
S78         C252   1.701       .  A
S78         C259   1.722       .  A
C79         C401   1.475   1_455  S
C79         S438   1.722   1_455  A
C79          C80   1.390       .  A
C80          H84   1.083       .  S
H82         C253   1.082       .  S
C85          S91   1.698       .  A
C85          C90   1.387       .  A
C85          C86   1.398       .  A
C86          C87   1.398       .  A
C86          H97   1.083       .  S
C87          C96   1.368       .  A
C87          C88   1.387       .  A
C88          S94   1.709       .  A
C88          C89   1.405       .  A
C89          C90   1.404       .  A
C89          H98   1.083       .  S
C90          C93   1.375       .  A
S91          C92   1.723       .  A
C92          C93   1.387       .  A
C93          H99   1.083       .  S
S94          C95   1.721       .  A
C95          C96   1.380       .  A
C96         H100   1.083       .  S
C101        S107   1.705       .  A
C101        C106   1.387       .  A
C101        C102   1.400       .  A
C102        C103   1.401       .  A
C102        H113   1.083       .  S
C103        C112   1.369       .  A
C103        C104   1.388       .  A
C104        S110   1.705       .  A
C104        C105   1.400       .  A
C105        C106   1.401       .  A
C105        H114   1.083       .  S
C106        C109   1.369       .  A
S107        C108   1.724       .  A
C108        C109   1.385       .  A
C109        H115   1.083       .  S
S110        C111   1.719       .  A
C111        C112   1.382       .  A
C112        H116   1.083       .  S
C117        S123   1.709       .  A
C117        C118   1.405       .  A
C117        C302   1.387   1_565  A
C118        C119   1.404   1_565  A
C118        H129   1.083       .  S
C119        C128   1.375       .  A
C119        C300   1.387       .  A
C120        S126   1.699       .  A
C120        C121   1.399       .  A
C120        C479   1.387       .  A
C121        C122   1.399       .  A
C121        H130   1.083       .  S
C122        C125   1.369       .  A
C122        C477   1.387   1_545  A
S123        C124   1.722   1_565  A
C124        C305   1.382       .  A
C125        C484   1.382       .  A
C125        H131   1.083       .  S
S126        C487   1.724       .  A
C127        S306   1.724       .  A
C127        C128   1.387       .  A
C128        H132   1.083   1_545  S
C133        S139   1.706       .  A
C133        C134   1.400       .  A
C133        C318   1.388       .  A
C134        C135   1.401       .  A
C134        H145   1.083       .  S
C135        C144   1.368       .  A
C135        C316   1.386       .  A
C136        S142   1.708   1_565  A
C136        C137   1.402   1_565  A
C136        C495   1.386       .  A
C137        C138   1.403   1_545  A
C137        H146   1.083       .  S
C138        C141   1.371   1_565  A
C138        C493   1.388       .  A
S139        C320   1.719       .  A
C140        S499   1.719       .  A
C140        C141   1.384   1_565  A
C141        H147   1.083       .  S
S142        C143   1.724   1_545  A
C143        C504   1.386       .  A
C144        C323   1.386       .  A
C144        H148   1.083       .  S
C149        S155   1.706       .  A
C149        C154   1.388   1_554  A
C149        C150   1.399       .  A
C150        C151   1.400       .  A
C150        H161   1.082       .  S
C151        C160   1.368       .  A
C151        C152   1.387   1_554  A
C152        S158   1.710       .  A
C152        C153   1.403       .  A
C153        C154   1.404       .  A
C153        H162   1.083       .  S
C154        C157   1.372       .  A
S155        C156   1.719   1_554  A
C156        C157   1.384       .  A
C157        H523   1.083       .  S
S158        C159   1.725   1_556  A
C159        C160   1.386       .  A
C160        H164   1.083       .  S
H163        C337   1.083       .  S
C165        S171   1.710       .  A
C165        C170   1.386   1_554  A
C165        C166   1.402       .  A
C166        C167   1.404       .  A
C166        H177   1.082       .  S
C167        C176   1.371       .  A
C167        C168   1.387       .  A
C168        S174   1.710   1_554  A
C168        C169   1.402   1_554  A
C169        C170   1.404       .  A
C169        H178   1.082       .  S
C170        C173   1.370       .  A
S171        C172   1.724   1_554  A
C172        C173   1.388       .  A
C173        H179   1.083       .  S
S174        C175   1.721   1_556  A
C175        C176   1.385       .  A
C176        H360   1.083       .  S
H180        C536   1.083       .  S
O181        V189   1.900   1_565  S
O181        C191   1.263       .  A
O182        V189   1.896       .  S
O183        V189   1.897   1_554  S
O184        V189   1.907       .  S
O184        C194   1.264   1_545  A
O185        V190   1.892   1_556  S
O185        C374   1.261       .  A
O186        V190   1.904       .  S
O186        C193   1.263   1_565  A
O187        V190   1.904   1_545  S
O187        C192   1.264       .  A
O188        V190   1.898       .  S
O188        C371   1.263   1_554  A
V190        V369   2.089   1_564  T
C191        C336   1.462       .  S
C192        O362   1.262   1_554  A
C192        C355   1.466       .  S
C193        O363   1.263       .  A
C193        C304   1.463       .  S
C194        C320   1.461       .  S
C195        C352   1.475       .  S
C195        N196   1.360       .  A
C195        N200   1.363   1_556  A
N196        C197   1.357       .  A
C197        C288   1.471       .  S
C197        N198   1.353       .  A
N198        C199   1.356       .  A
C199        C203   1.470   1_556  S
C199        N200   1.361   1_556  A
C201        C339   1.473       .  S
C201        N202   1.354       .  A
C201        N206   1.354       .  A
N202        C203   1.360       .  A
C203        N204   1.363       .  A
N204        C205   1.362       .  A
C205        C272   1.472       .  S
C205        N206   1.356       .  A
O207        V215   1.900       .  S
O207        C217   1.263       .  A
O208        V215   1.900       .  S
O208        C218   1.263       .  A
O209        V215   1.905       .  S
O209        C219   1.264       .  A
O210        V215   1.896       .  S
O210        C220   1.263       .  A
O211        V216   1.901       .  S
O211        C220   1.262       .  A
O212        V216   1.890       .  S
O212        C219   1.261       .  A
O213        V216   1.900       .  S
O213        C218   1.263       .  A
O214        V216   1.906       .  S
O214        C217   1.264       .  A
V215        V216   2.088       .  T
C217        C240   1.468       .  S
C218        C256   1.464       .  S
C219        C291   1.457       .  S
C220        C275   1.460       .  S
C221        C439   1.475       .  S
C221        N222   1.356       .  A
C221        N226   1.352       .  A
N222        C223   1.363       .  A
C223        C411   1.473   1_545  S
C223        N224   1.364       .  A
N224        C225   1.362       .  A
C225        C307   1.473       .  S
C225        N226   1.354       .  A
C227        N228   1.358       .  A
C227        N232   1.364       .  A
N228        C229   1.355       .  A
C229        C323   1.473       .  S
C229        N230   1.354       .  A
N230        C231   1.359       .  A
C231        N232   1.365       .  A
C233        S239   1.711       .  A
C233        C238   1.387       .  A
C233        C234   1.407       .  A
C234        C235   1.406       .  A
C234        H245   1.082       .  S
C235        C244   1.379       .  A
C235        C236   1.387       .  A
C236        S422   1.702       .  A
C236        C237   1.401       .  A
C237        C238   1.401       .  A
C237        H426   1.082       .  S
C238        C241   1.373       .  A
S239        C240   1.722       .  A
C240        C241   1.384       .  A
C241        H247   1.084       .  S
C243        C407   1.479       .  S
C243        S422   1.725       .  A
C243        C244   1.390       .  A
C244        H248   1.083       .  S
C249        S255   1.711       .  A
C249        C254   1.387       .  A
C249        C250   1.406       .  A
C250        C251   1.406       .  A
C250        H261   1.082       .  S
C251        C260   1.377       .  A
C251        C252   1.387       .  A
C252        C253   1.398       .  A
C253        C254   1.399       .  A
C254        C257   1.369       .  A
S255        C256   1.721       .  A
C256        C257   1.382       .  A
C257        H263   1.084       .  S
S258        C432   1.701       .  A
S258        C439   1.722       .  A
C259        C260   1.390       .  A
C260        H264   1.083       .  S
H262        C433   1.082       .  S
C265        S271   1.698       .  A
C265        C270   1.387       .  A
C265        C266   1.398       .  A
C266        C267   1.398       .  A
C266        H277   1.083       .  S
C267        C276   1.368       .  A
C267        C268   1.387       .  A
C268        S274   1.709       .  A
C268        C269   1.405       .  A
C269        C270   1.404       .  A
C269        H278   1.083       .  S
C270        C273   1.375       .  A
S271        C272   1.723       .  A
C272        C273   1.387       .  A
C273        H279   1.083       .  S
S274        C275   1.721       .  A
C275        C276   1.380       .  A
C276        H280   1.083       .  S
C281        S287   1.705       .  A
C281        C286   1.387       .  A
C281        C282   1.400       .  A
C282        C283   1.401       .  A
C282        H293   1.083       .  S
C283        C292   1.369       .  A
C283        C284   1.388       .  A
C284        S290   1.705       .  A
C284        C285   1.400       .  A
C285        C286   1.401       .  A
C285        H294   1.083       .  S
C286        C289   1.369       .  A
S287        C288   1.724       .  A
C288        C289   1.385       .  A
C289        H295   1.083       .  S
S290        C291   1.719       .  A
C291        C292   1.382       .  A
C292        H296   1.083       .  S
C297        S303   1.709       .  A
C297        C482   1.387   1_565  A
C297        C298   1.405       .  A
C298        C299   1.404   1_565  A
C298        H309   1.083       .  S
C299        C308   1.375       .  A
C299        C480   1.387       .  A
C300        S306   1.699       .  A
C300        C301   1.399       .  A
C301        C302   1.399       .  A
C301        H310   1.083       .  S
C302        C305   1.369       .  A
S303        C304   1.722   1_565  A
C304        C485   1.382       .  A
C305        H311   1.083       .  S
C307        S486   1.724       .  A
C307        C308   1.387       .  A
C308        H312   1.083   1_545  S
C313        S319   1.706       .  A
C313        C498   1.388       .  A
C313        C314   1.400       .  A
C314        C315   1.401       .  A
C314        H325   1.083       .  S
C315        C324   1.368       .  A
C315        C496   1.386       .  A
C316        S322   1.708   1_565  A
C316        C317   1.402   1_565  A
C317        C318   1.403   1_545  A
C317        H326   1.083       .  S
C318        C321   1.371   1_565  A
S319        C500   1.719       .  A
C320        C321   1.384   1_565  A
C321        H327   1.083       .  S
S322        C323   1.724   1_545  A
C324        C503   1.386       .  A
C324        H328   1.083       .  S
C329        S335   1.706       .  A
C329        C334   1.388   1_554  A
C329        C330   1.399       .  A
C330        C331   1.400       .  A
C330        H341   1.082       .  S
C331        C340   1.368       .  A
C331        C332   1.387   1_554  A
C332        S338   1.710       .  A
C332        C333   1.403       .  A
C333        C334   1.404       .  A
C333        H342   1.083       .  S
C334        C337   1.372       .  A
S335        C336   1.719   1_554  A
C336        C337   1.384       .  A
S338        C339   1.725   1_556  A
C339        C340   1.386       .  A
C340        H344   1.083       .  S
H343        C517   1.083       .  S
C345        S351   1.710       .  A
C345        C350   1.386   1_554  A
C345        C346   1.402       .  A
C346        C347   1.404       .  A
C346        H357   1.082       .  S
C347        C356   1.371       .  A
C347        C348   1.387       .  A
C348        S354   1.710   1_554  A
C348        C349   1.402   1_554  A
C349        C350   1.404       .  A
C349        H358   1.082       .  S
C350        C353   1.370       .  A
S351        C352   1.724   1_554  A
C352        C353   1.388       .  A
C353        H359   1.083       .  S
S354        C355   1.721   1_556  A
C355        C356   1.385       .  A
C356        H540   1.083       .  S
O361        V369   1.900   1_565  S
O361        C371   1.263       .  A
O362        V369   1.896       .  S
O363        V369   1.897   1_554  S
O364        V369   1.907       .  S
O364        C374   1.264   1_545  A
O365        V370   1.892   1_556  S
O366        V370   1.904       .  S
O366        C373   1.263   1_565  A
O367        V370   1.904   1_545  S
O367        C372   1.264       .  A
O368        V370   1.898       .  S
C371        C516   1.462       .  S
C372        C535   1.466       .  S
C373        C484   1.463       .  S
C374        C500   1.461       .  S
C375        C532   1.475       .  S
C375        N376   1.360       .  A
C375        N380   1.363   1_556  A
N376        C377   1.357       .  A
C377        C468   1.471       .  S
C377        N378   1.353       .  A
N378        C379   1.356       .  A
C379        C383   1.470   1_556  S
C379        N380   1.361   1_556  A
C381        C519   1.473       .  S
C381        N382   1.354       .  A
C381        N386   1.354       .  A
N382        C383   1.360       .  A
C383        N384   1.363       .  A
N384        C385   1.362       .  A
C385        C452   1.472       .  S
C385        N386   1.356       .  A
O387        V395   1.900       .  S
O387        C397   1.263       .  A
O388        V395   1.900       .  S
O388        C398   1.263       .  A
O389        V395   1.905       .  S
O389        C399   1.264       .  A
O390        V395   1.896       .  S
O390        C400   1.263       .  A
O391        V396   1.901       .  S
O391        C400   1.262       .  A
O392        V396   1.890       .  S
O392        C399   1.261       .  A
O393        V396   1.900       .  S
O393        C398   1.263       .  A
O394        V396   1.906       .  S
O394        C397   1.264       .  A
V395        V396   2.088       .  T
C397        C420   1.468       .  S
C398        C436   1.464       .  S
C399        C471   1.457       .  S
C400        C455   1.460       .  S
C401        N402   1.356   1_655  A
C401        N406   1.352       .  A
N402        C403   1.363   1_455  A
C403        N404   1.364       .  A
N404        C405   1.362       .  A
C405        C487   1.473       .  S
C405        N406   1.354       .  A
C407        N408   1.358       .  A
C407        N412   1.364       .  A
N408        C409   1.355       .  A
C409        C503   1.473       .  S
C409        N410   1.354       .  A
N410        C411   1.359       .  A
C411        N412   1.365       .  A
C413        S419   1.711       .  A
C413        C418   1.387       .  A
C413        C414   1.407       .  A
C414        C415   1.406       .  A
C414        H425   1.082       .  S
C415        C424   1.379       .  A
C415        C416   1.387   1_655  A
C416        C417   1.401   1_455  A
C417        C418   1.401       .  A
C418        C421   1.373       .  A
S419        C420   1.722       .  A
C420        C421   1.384       .  A
C421        H427   1.084       .  S
C423        C424   1.390   1_455  A
C424        H428   1.083       .  S
C429        S435   1.711       .  A
C429        C434   1.387       .  A
C429        C430   1.406       .  A
C430        C431   1.406       .  A
C430        H441   1.082       .  S
C431        C440   1.377       .  A
C431        C432   1.387       .  A
C432        C433   1.398       .  A
C433        C434   1.399       .  A
C434        C437   1.369       .  A
S435        C436   1.721       .  A
C436        C437   1.382       .  A
C437        H443   1.084       .  S
C439        C440   1.390       .  A
C440        H444   1.083       .  S
C445        S451   1.698       .  A
C445        C450   1.387       .  A
C445        C446   1.398       .  A
C446        C447   1.398       .  A
C446        H457   1.083       .  S
C447        C456   1.368       .  A
C447        C448   1.387       .  A
C448        S454   1.709       .  A
C448        C449   1.405       .  A
C449        C450   1.404       .  A
C449        H458   1.083       .  S
C450        C453   1.375       .  A
S451        C452   1.723       .  A
C452        C453   1.387       .  A
C453        H459   1.083       .  S
S454        C455   1.721       .  A
C455        C456   1.380       .  A
C456        H460   1.083       .  S
C461        S467   1.705       .  A
C461        C466   1.387       .  A
C461        C462   1.400       .  A
C462        C463   1.401       .  A
C462        H473   1.083       .  S
C463        C472   1.369       .  A
C463        C464   1.388       .  A
C464        S470   1.705       .  A
C464        C465   1.400       .  A
C465        C466   1.401       .  A
C465        H474   1.083       .  S
C466        C469   1.369       .  A
S467        C468   1.724       .  A
C468        C469   1.385       .  A
C469        H475   1.083       .  S
S470        C471   1.719       .  A
C471        C472   1.382       .  A
C472        H476   1.083       .  S
C477        S483   1.709       .  A
C477        C478   1.405       .  A
C478        C479   1.404   1_565  A
C478        H489   1.083       .  S
C479        C488   1.375       .  A
C480        S486   1.699       .  A
C480        C481   1.399       .  A
C481        C482   1.399       .  A
C481        H490   1.083       .  S
C482        C485   1.369       .  A
S483        C484   1.722   1_565  A
C485        H491   1.083       .  S
C487        C488   1.387       .  A
C488        H492   1.083   1_545  S
C493        S499   1.706       .  A
C493        C494   1.400       .  A
C494        C495   1.401       .  A
C494        H505   1.083       .  S
C495        C504   1.368       .  A
C496        S502   1.708   1_565  A
C496        C497   1.402   1_565  A
C497        C498   1.403   1_545  A
C497        H506   1.083       .  S
C498        C501   1.371   1_565  A
C500        C501   1.384   1_565  A
C501        H507   1.083       .  S
S502        C503   1.724   1_545  A
C504        H508   1.083       .  S
C509        S515   1.706       .  A
C509        C514   1.388   1_554  A
C509        C510   1.399       .  A
C510        C511   1.400       .  A
C510        H521   1.082       .  S
C511        C520   1.368       .  A
C511        C512   1.387   1_554  A
C512        S518   1.710       .  A
C512        C513   1.403       .  A
C513        C514   1.404       .  A
C513        H522   1.083       .  S
C514        C517   1.372       .  A
S515        C516   1.719   1_554  A
C516        C517   1.384       .  A
S518        C519   1.725   1_556  A
C519        C520   1.386       .  A
C520        H524   1.083       .  S
C525        S531   1.710       .  A
C525        C530   1.386   1_554  A
C525        C526   1.402       .  A
C526        C527   1.404       .  A
C526        H537   1.082       .  S
C527        C536   1.371       .  A
C527        C528   1.387       .  A
C528        S534   1.710   1_554  A
C528        C529   1.402   1_554  A
C529        C530   1.404       .  A
C529        H538   1.082       .  S
C530        C533   1.370       .  A
S531        C532   1.724   1_554  A
C532        C533   1.388       .  A
C533        H539   1.083       .  S
S534        C535   1.721   1_556  A
C535        C536   1.385       .  A
