geometry optimzed in LAMMPS
_audit_creation_date              2020-11-30 
_audit_creation_method            'lammps2cif' 
_symmetry_space_group_name_H-M    'P1' 
_symmetry_Int_Tables_number       1 
_symmetry_cell_setting            triclinic 
loop_ 
_symmetry_equiv_pos_as_xyz 
  x,y,z 
_cell_length_a                    43.2572921 
_cell_length_b                    43.329872585301814 
_cell_length_c                    31.99081862278044 
_cell_angle_alpha                 90.64252806056834 
_cell_angle_beta                  90.19514328620794 
_cell_angle_gamma                 90.53072343993959 
loop_ 
_atom_site_label 
_atom_site_type_symbol 
_atom_site_fract_x 
_atom_site_fract_y 
_atom_site_fract_z 
_atom_site_charge 
C1          C  0.70093860  0.28635946  0.45643890     0.30200
C2          C  0.70762552  0.21952358  0.04168867     0.30200
C3          C  0.67044324  0.28123961  0.47936533    -0.06000
C4          C  0.72401027  0.26227831  0.47344329    -0.06800
C5          C  0.71369461  0.31693774  0.47637644    -0.06700
C6          C  0.67609919  0.22565406  0.02225605    -0.06000
C7          C  0.71911732  0.19092264  0.01776338    -0.06800
C8          C  0.72970224  0.24529266  0.02578604    -0.06700
C9          C  0.64598724  0.22875401  0.03611853    -0.32000
N10         N  0.62328578  0.27229075  0.50404516     0.14500
C11         C  0.63963860  0.27682802  0.46863082    -0.32100
H12         H  0.62995096  0.27632537  0.43737644     0.16400
C13         C  0.74000761  0.16818986  0.02718145    -0.31000
N14         N  0.75106279  0.15569994  0.99131061     0.13200
C15         C  0.74246047  0.23850140  0.45791590    -0.31000
C16         C  0.74929660  0.26849143  0.04158541    -0.31300
N17         N  0.76119067  0.28475172  0.00896114     0.13700
H18         H  0.75363823  0.27384431  0.07418182     0.16300
C19         C  0.73483879  0.33977277  0.46484166    -0.31300
H20         H  0.74292460  0.34438235  0.43362041     0.16300
H21         H  0.74409792  0.23115503  0.42561154     0.16300
H22         H  0.63800470  0.22739858  0.06812305     0.16400
H23         H  0.74756383  0.16179189  0.05810452     0.16300
C24         C  0.70980718  0.23307565  0.21359475     0.30200
C25         C  0.71273920  0.24354839  0.29485842     0.30200
C26         C  0.67908883  0.24101317  0.23358875    -0.06000
C27         C  0.72115036  0.20545134  0.23903081    -0.06800
C28         C  0.73309721  0.25883577  0.22655865    -0.06700
C29         C  0.68051393  0.24714385  0.27493507    -0.06000
C30         C  0.72280617  0.21046139  0.28199017    -0.06800
C31         C  0.73495552  0.26337763  0.26880082    -0.06700
C32         C  0.65031594  0.25202396  0.28840099    -0.32000
N33         N  0.63087317  0.24815000  0.25532017     0.14500
C34         C  0.64826411  0.24103618  0.22153978    -0.32100
H35         H  0.63915167  0.23577905  0.19063197     0.16400
C36         C  0.74328778  0.18848613  0.29721234    -0.31000
N37         N  0.75302362  0.17027390  0.26479333     0.13200
C38         C  0.74086315  0.18176802  0.22936065    -0.31000
C39         C  0.75705847  0.28588245  0.27666001    -0.31300
N40         N  0.76766744  0.29677811  0.23990989     0.13700
H41         H  0.76356738  0.29520550  0.30700995     0.16300
C42         C  0.75345665  0.28009949  0.20875605    -0.31300
H43         H  0.75677013  0.28397872  0.17566369     0.16300
H44         H  0.74728657  0.17419286  0.19829475     0.16300
H45         H  0.64293004  0.25671232  0.32009468     0.16400
H46         H  0.75089282  0.18648513  0.32930988     0.16300
C47         C  0.85854240  0.53499471  0.45314214     0.30200
C48         C  0.86008262  0.47513558  0.03737600     0.30200
C49         C  0.89196989  0.53539550  0.47205879    -0.06000
C50         C  0.84131648  0.06177765  0.46988644    -0.06800
C51         C  0.84426448  0.50667395  0.47536037    -0.06700
C52         C  0.89290565  0.47084874  0.01941202    -0.06000
C53         C  0.84579084  0.00242891  0.01513255    -0.06800
C54         C  0.84254636  0.44791036  0.01671265    -0.06700
C55         C  0.92333031  0.97072362  0.03224370    -0.32000
N56         N  0.94232523  0.96834112  0.99867150     0.14500
C57         C  0.91842336  0.01907439  0.46107221    -0.32100
H58         H  0.92487388  0.01056547  0.43043445     0.16400
C59         C  0.83006329  0.02879180  0.02729839    -0.31000
N60         N  0.82101020  0.04401019  0.99248024     0.13200
C61         C  0.82563496  0.08761871  0.45563968    -0.31000
C62         C  0.83128979  0.41995567  0.03024273    -0.31300
N63         N  0.82345979  0.40218716  0.99668464     0.13700
H64         H  0.82964883  0.41267761  0.06244018     0.16300
C65         C  0.83200044  0.47781454  0.46457233    -0.31300
H66         H  0.82799155  0.46868402  0.43345742     0.16300
H67         H  0.82090939  0.09300247  0.42325705     0.16300
H68         H  0.93119460  0.97239031  0.06431274     0.16400
H69         H  0.82498901  0.03595786  0.05900041     0.16300
C70         C  0.85760150  0.49075625  0.20973200     0.30200
C71         C  0.85903649  0.48918688  0.29292589     0.30200
C72         C  0.88974738  0.48435433  0.22841766    -0.06000
C73         C  0.84599126  0.01613458  0.23048662    -0.06800
C74         C  0.83775388  0.46488713  0.22927707    -0.06700
C75         C  0.89043842  0.48326352  0.27151647    -0.06000
C76         C  0.84729700  0.01557665  0.27268608    -0.06800
C77         C  0.83846082  0.46363787  0.27265687    -0.06700
C78         C  0.92165508  0.97560111  0.28136939    -0.32000
N79         N  0.93907042  0.97553380  0.24625682     0.14500
C80         C  0.91986686  0.97805162  0.21291122    -0.32100
H81         H  0.92750617  0.97899880  0.18076096     0.16400
C82         C  0.83424995  0.04290739  0.28699201    -0.31000
N83         N  0.82423447  0.05935282  0.25401503     0.13200
C84         C  0.83177374  0.04326642  0.21883072    -0.31000
C85         C  0.83017336  0.43337460  0.28266646    -0.31300
N86         N  0.82210802  0.41763752  0.24707846     0.13700
H87         H  0.83069343  0.42341724  0.31350474     0.16300
C88         C  0.82874676  0.43610318  0.21453898    -0.31300
H89         H  0.82870435  0.42838255  0.18223122     0.16300
H90         H  0.82631478  0.05013334  0.18728610     0.16300
H91         H  0.93102462  0.97409660  0.31270952     0.16400
H92         H  0.83073062  0.04989275  0.31917102     0.16300
O93         O  0.58197655  0.23686222  0.50553920    -0.72800
O94         O  0.49014894  0.21579473  0.50061286    -0.73700
O95         O  0.53761528  0.22725060  0.43045359    -0.62400
O96         O  0.53019606  0.23006618  0.07847747    -0.70800
O97         O  0.54123035  0.27886017  0.07924636    -0.70300
O98         O  0.52746642  0.27609944  0.43122089    -0.61600
O99         O  0.47924948  0.26549883  0.50152739    -0.74100
O100        O  0.58666079  0.26938365  0.00466412    -0.72900
Cu101      Cu  0.53659826  0.22520380  0.50377302     1.04600
Cu102      Cu  0.54147823  0.28067548  0.00530522     1.04300
C103        C  0.59093659  0.26502021  0.50571812     0.93400
C104        C  0.47016214  0.23731967  0.49875613     0.92600
C105        C  0.53323975  0.25185666  0.40705350     0.84700
C106        C  0.53582560  0.25441769  0.10286180     0.91000
O107        O  0.53621135  0.27755862  0.32963857    -0.72800
O108        O  0.53855904  0.27884699  0.18250811    -0.73700
O109        O  0.49157063  0.28182398  0.25551648    -0.62400
O110        O  0.58459860  0.27615010  0.25793883    -0.70800
O111        O  0.58131103  0.22522664  0.25380981    -0.70300
O112        O  0.48810718  0.23080077  0.25580448    -0.61600
O113        O  0.53380109  0.22910636  0.18100151    -0.74100
O114        O  0.53458640  0.22758858  0.32793687    -0.72900
Cu115      Cu  0.53793731  0.28012956  0.25639687     1.04600
Cu116      Cu  0.53440966  0.22662040  0.25454631     1.04300
C117        C  0.53476272  0.25234058  0.35257571     0.93400
C118        C  0.53607510  0.25415563  0.15776921     0.92600
C119        C  0.47527566  0.25719952  0.25638793     0.84700
C120        C  0.59769042  0.24989227  0.25596694     0.91000
O121        O  0.06799665  0.45515032  0.49959565    -0.72800
O122        O  0.97628731  0.47738035  0.49740695    -0.73700
O123        O  0.02355604  0.46554785  0.42578045    -0.62400
O124        O  0.03965393  0.46345086  0.07381101    -0.70800
O125        O  0.02949535  0.01332960  0.07202733    -0.70300
O126        O  0.03449624  0.01422779  0.42367464    -0.61600
O127        O  0.98362325  0.00340292  0.99925400    -0.74100
O128        O  0.07424382  0.02564197  0.99784170    -0.72900
Cu129      Cu  0.02210602  0.46455152  0.49901524     1.04600
Cu130      Cu  0.02853934  0.01559652  0.99852835     1.04300
C131        C  0.08833818  0.97660948  0.49592025     0.93400
C132        C  0.97472468  0.97525311  0.99893057     0.92600
C133        C  0.02964064  0.98951870  0.39961485     0.84700
C134        C  0.03478760  0.98877391  0.09523730     0.91000
O135        O  0.98824564  0.45725162  0.24817465    -0.72800
O136        O  0.08072499  0.46650603  0.25274964    -0.73700
O137        O  0.03236906  0.46369066  0.32382196    -0.62400
O138        O  0.03583923  0.46277881  0.17656992    -0.70800
O139        O  0.03099704  0.01298921  0.17421576    -0.70300
O140        O  0.02964392  0.01348126  0.32088936    -0.61600
O141        O  0.07737596  0.01887925  0.24834064    -0.74100
O142        O  0.98374882  0.00692250  0.24645824    -0.72900
Cu143      Cu  0.03447997  0.46104438  0.25030806     1.04600
Cu144      Cu  0.03026488  0.01461241  0.24748967     1.04300
C145        C  0.97204695  0.97967572  0.24562944     0.93400
C146        C  0.09459484  0.99503194  0.24926661     0.92600
C147        C  0.03104670  0.98884698  0.34488372     0.84700
C148        C  0.03437146  0.98833945  0.14995459     0.91000
C149        C  0.35603730  0.20945656  0.45551411     0.30200
C150        C  0.36260810  0.27943873  0.04092783     0.30200
C151        C  0.38908049  0.21655425  0.47378797    -0.06000
C152        C  0.33675604  0.23727460  0.47268310    -0.06800
C153        C  0.34398853  0.18187819  0.48081585    -0.06700
C154        C  0.39450303  0.27745337  0.02079738    -0.06000
C155        C  0.34851567  0.30819174  0.01972315    -0.06800
C156        C  0.34262396  0.25361355  0.02210192    -0.06700
C157        C  0.42468389  0.27639678  0.03497880    -0.32000
N158        N  0.44357693  0.27484079  0.00150203     0.14500
C159        C  0.41963133  0.22354798  0.46153909    -0.32100
H160        H  0.42814194  0.22495916  0.42987483     0.16400
C161        C  0.33292219  0.33480462  0.03079117    -0.31000
N162        N  0.30747219  0.27811999  0.49119641     0.13200
C163        C  0.31903920  0.26191805  0.45812609    -0.31000
C164        C  0.32229145  0.23112824  0.03619276    -0.31300
N165        N  0.31150518  0.21474316  0.00277938     0.13700
H166        H  0.31642380  0.22647616  0.06841154     0.16300
C167        C  0.32872495  0.15436243  0.47207464    -0.31300
H168        H  0.32366177  0.14497481  0.44129047     0.16300
H169        H  0.31554898  0.26845962  0.42594710     0.16300
H170        H  0.43226581  0.27563958  0.06724376     0.16400
H171        H  0.32713511  0.34219827  0.06215418     0.16300
C172        C  0.36260914  0.25807363  0.21346280     0.30200
C173        C  0.36074069  0.24921229  0.29588668     0.30200
C174        C  0.39391732  0.25859403  0.23544312    -0.06000
C175        C  0.34283271  0.28094555  0.23776591    -0.06800
C176        C  0.34798154  0.22668871  0.22596383    -0.06700
C177        C  0.39338312  0.25496622  0.27799525    -0.06000
C178        C  0.34273839  0.27808597  0.28066528    -0.06800
C179        C  0.34821075  0.22250611  0.26831971    -0.06700
C180        C  0.42400733  0.25607357  0.29120467    -0.32000
N181        N  0.44236225  0.25912928  0.25713647     0.14500
C182        C  0.42424626  0.26077815  0.22285612    -0.32100
H183        H  0.43256858  0.26260452  0.19105438     0.16400
C184        C  0.32738809  0.30434865  0.29562689    -0.31000
N185        N  0.31708239  0.32107566  0.26224899     0.13200
C186        C  0.32542248  0.30582362  0.22719909    -0.31000
C187        C  0.33487260  0.19432108  0.27654622    -0.31300
N188        N  0.32467622  0.18127984  0.24069478     0.13700
H189        H  0.33153989  0.18417931  0.30703387     0.16300
C190        C  0.33234381  0.20085515  0.20894464    -0.31300
H191        H  0.32605546  0.19719618  0.17650386     0.16300
H192        H  0.32059268  0.31354488  0.19578186     0.16300
H193        H  0.43251888  0.25393490  0.32287920     0.16400
H194        H  0.32412878  0.31070327  0.32808086     0.16300
C195        C  0.20165644  0.46545840  0.45914445     0.30200
C196        C  0.20668477  0.52702462  0.04134575     0.30200
C197        C  0.21318399  0.43392747  0.47596642    -0.06000
C198        C  0.22452876  0.98793191  0.48080982    -0.06800
C199        C  0.16958575  0.46831397  0.47839027    -0.06700
C200        C  0.22812235  0.50325065  0.02020934    -0.06000
C201        C  0.21681333  0.05973097  0.02128075    -0.06800
C202        C  0.17470653  0.52179274  0.02196380    -0.06700
C203        C  0.24784626  0.47965788  0.03186940    -0.32000
N204        N  0.23885886  0.39155180  0.49468537     0.14500
C205        C  0.22980259  0.40872730  0.46151485    -0.32100
H206        H  0.23673908  0.40418789  0.42958179     0.16400
C207        C  0.23562687  0.08386129  0.03481592    -0.31000
N208        N  0.25630091  0.02433006  0.50740437     0.13200
C209        C  0.24552304  0.01129113  0.47136031    -0.31000
C210        C  0.14495422  0.51484972  0.03551064    -0.31300
N211        N  0.12077293  0.96979002  0.49526075     0.13700
H212        H  0.13754171  0.51202845  0.06752129     0.16300
C213        C  0.13926422  0.47120938  0.46478168    -0.31300
H214        H  0.13155348  0.47426309  0.43287929     0.16300
H215        H  0.25118564  0.01949801  0.44046826     0.16300
H216        H  0.25233163  0.47225104  0.06342691     0.16400
H217        H  0.24142891  0.08950586  0.06697006     0.16300
C218        C  0.20657079  0.50429920  0.21066780     0.30200
C219        C  0.20830653  0.49735356  0.29212346     0.30200
C220        C  0.22788848  0.47776354  0.22510988    -0.06000
C221        C  0.22361366  0.03150552  0.23295534    -0.06800
C222        C  0.17524832  0.49866724  0.23058399    -0.06700
C223        C  0.22908740  0.47541084  0.26764603    -0.06000
C224        C  0.22395113  0.02910849  0.27590189    -0.06800
C225        C  0.17602632  0.49504565  0.27241295    -0.06700
C226        C  0.24973694  0.45284140  0.27795860    -0.32000
N227        N  0.25983566  0.43901820  0.24261534     0.14500
C228        C  0.24754175  0.45483640  0.20968625    -0.32100
H229        H  0.25205357  0.44977552  0.17711631     0.16400
C230        C  0.24290636  0.05340357  0.29034223    -0.31000
N231        N  0.25321341  0.06989313  0.25668966     0.13200
C232        C  0.24234344  0.05575780  0.22185397    -0.31000
C233        C  0.14562537  0.49288572  0.28605793    -0.31300
N234        N  0.12778376  0.99819732  0.24964613     0.13700
H235        H  0.13793109  0.49026570  0.31797881     0.16300
C236        C  0.14456106  0.49910495  0.21816972    -0.31300
H237        H  0.13590362  0.50220421  0.18670202     0.16300
H238        H  0.24820402  0.06251360  0.19032606     0.16300
H239        H  0.25522882  0.44536343  0.30932138     0.16400
H240        H  0.24972351  0.05793432  0.32241376     0.16300
C241        C  0.20518592  0.48848765  0.33502708    -0.05900
C242        C  0.20213966  0.01277070  0.36234011    -0.17100
C243        C  0.19608229  0.00501067  0.40266131     0.11300
C244        C  0.19924140  0.47310447  0.41577004    -0.05900
C245        C  0.19843654  0.44954833  0.38651792    -0.17100
C246        C  0.19849926  0.45708707  0.34527361     0.11300
S247        S  0.18189373  0.03490395  0.43794083    -0.32100
S248        S  0.18716072  0.42708182  0.30776372    -0.32100
H249        H  0.18231067  0.40299874  0.33618932     0.29300
H250        H  0.18171607  0.05930551  0.40931928     0.29300
H251        H  0.20174576  0.03666495  0.35299730     0.19900
H252        H  0.19559816  0.42587184  0.39580280     0.19900
C253        C  0.20363740  0.52276078  0.08560529    -0.05900
C254        C  0.19911238  0.49189101  0.09789348    -0.17100
C255        C  0.19754083  0.48495860  0.13911914     0.11300
C256        C  0.20195390  0.50956225  0.16693056    -0.05900
C257        C  0.19656124  0.04053553  0.15374158    -0.17100
C258        C  0.19506626  0.04825237  0.11251652     0.11300
S259        S  0.18564669  0.44663841  0.15474350    -0.32100
S260        S  0.18017972  0.08551441  0.09797632    -0.32100
H261        H  0.18322988  0.09966890  0.13759825     0.29300
H262        H  0.19182935  0.43182081  0.11635986     0.29300
H263        H  0.19599083  0.47344120  0.07509255     0.19900
H264        H  0.19138163  0.05794745  0.17709326     0.19900
C265        C  0.30557028  0.15364202  0.24083078    -0.05900
C266        C  0.28027054  0.15252824  0.26850577    -0.17100
C267        C  0.26331792  0.12525551  0.27521884     0.11300
C268        C  0.27212727  0.09762978  0.25500132    -0.05900
C269        C  0.29723182  0.09875378  0.22691680    -0.17100
C270        C  0.31399735  0.12620421  0.21976863     0.11300
S271        S  0.22971236  0.12761490  0.30810881    -0.32100
S272        S  0.34603873  0.12453184  0.18403428    -0.32100
H273        H  0.36454103  0.14654260  0.20513049     0.29300
H274        H  0.21120846  0.10793402  0.28304523     0.29300
H275        H  0.27361876  0.17339261  0.28503532     0.19900
H276        H  0.30376810  0.07790874  0.21028278     0.19900
C277        C  0.30183192  0.35072748  0.26038001    -0.05900
C278        C  0.27796534  0.35440875  0.23082978    -0.17100
C279        C  0.26551564  0.38344524  0.22166629     0.11300
C280        C  0.27636260  0.40997753  0.24344213    -0.05900
C281        C  0.30050144  0.40637574  0.27277953    -0.17100
C282        C  0.31367502  0.37734392  0.28083679     0.11300
S283        S  0.23505085  0.38569480  0.18323141    -0.32100
S284        S  0.34646343  0.37491787  0.31557865    -0.32100
H285        H  0.35249690  0.40683797  0.31842882     0.29300
H286        H  0.23528137  0.35457199  0.17026890     0.29300
H287        H  0.26936913  0.33415154  0.21435420     0.19900
H288        H  0.30882444  0.42653950  0.28974222     0.19900
C289        C  0.27211597  0.05395792  0.51039240    -0.05900
C290        C  0.25911294  0.07946305  0.49030555    -0.17100
C291        C  0.27339705  0.10868589  0.49148551     0.11300
C292        C  0.30202495  0.11291020  0.51224640    -0.05900
C293        C  0.30389748  0.16243434  0.02950720    -0.17100
C294        C  0.28951065  0.13329769  0.02838269     0.11300
S295        S  0.25354933  0.14002685  0.46679632    -0.32100
S296        S  0.30638989  0.10351967  0.05970406    -0.32100
H297        H  0.29913624  0.07923897  0.03171125     0.29300
H298        H  0.26564534  0.16335148  0.49324895     0.29300
H299        H  0.23730643  0.07660562  0.47392999     0.19900
H300        H  0.32414411  0.16602754  0.04906062     0.19900
C301        C  0.29017106  0.30674101  0.49040411    -0.05900
C302        C  0.31647161  0.40271307  0.02315714    -0.17100
C303        C  0.30177091  0.43154365  0.02365686     0.11300
C304        C  0.25713500  0.36361575  0.49240389    -0.05900
C305        C  0.24678887  0.33848132  0.46763621    -0.17100
C306        C  0.26271323  0.31018504  0.46668593     0.11300
S307        S  0.31661953  0.46022745  0.05983790    -0.32100
S308        S  0.24585520  0.27892291  0.43653059    -0.32100
H309        H  0.25557536  0.25539894  0.46335858     0.29300
H310        H  0.31107318  0.48541223  0.03357433     0.29300
H311        H  0.33533761  0.39883385  0.04480003     0.19900
H312        H  0.22553459  0.34062450  0.44999575     0.19900
C313        C  0.35260436  0.20338167  0.41023113    -0.05900
C314        C  0.32580802  0.21403997  0.39141109    -0.17100
C315        C  0.32839293  0.23317886  0.35722772     0.11300
C316        C  0.35823371  0.23778944  0.33928980    -0.05900
C317        C  0.38189101  0.21720039  0.35140219    -0.17100
C318        C  0.37860635  0.19900352  0.38594076     0.11300
S319        S  0.29278691  0.24719242  0.33473406    -0.32100
S320        S  0.40569638  0.16836939  0.39525140    -0.32100
H321        H  0.38940458  0.15534975  0.42876116     0.29300
H322        H  0.27276602  0.22597257  0.35411521     0.29300
H323        H  0.30394004  0.21208477  0.40768190     0.19900
H324        H  0.40137306  0.21208306  0.33170249     0.19900
C325        C  0.36637039  0.27504735  0.08570218    -0.05900
C326        C  0.36757945  0.30054809  0.11218598    -0.17100
C327        C  0.37121928  0.29610009  0.15436121     0.11300
C328        C  0.36693675  0.26549052  0.16939878    -0.05900
C329        C  0.37287536  0.24075018  0.14288660    -0.17100
C330        C  0.37486064  0.24546195  0.10090056     0.11300
S331        S  0.38392797  0.32994013  0.18399702    -0.32100
S332        S  0.38868661  0.21365217  0.06843961    -0.32100
H333        H  0.39737312  0.19374519  0.10076757     0.29300
H334        H  0.39311483  0.31603994  0.22109622     0.29300
H335        H  0.36836484  0.32369657  0.09991316     0.19900
H336        H  0.37683291  0.21795313  0.15512705     0.19900
C337        C  0.85913440  0.49582456  0.33839603    -0.05900
C338        C  0.88414518  0.01188781  0.35025640    -0.17100
C339        C  0.88063526  0.03337205  0.38139503     0.11300
C340        C  0.85472679  0.53410831  0.40749596    -0.05900
C341        C  0.82805199  0.51975075  0.39209098    -0.17100
C342        C  0.83021278  0.49878408  0.35928040     0.11300
S343        S  0.90754683  0.06544686  0.38482914    -0.32100
S344        S  0.79504592  0.47886270  0.34340794    -0.32100
H345        H  0.77427657  0.49533109  0.36877255     0.29300
H346        H  0.88892736  0.08359760  0.41116546     0.29300
H347        H  0.90415387  0.01577746  0.33112547     0.19900
H348        H  0.80689918  0.52114802  0.41006493     0.19900
C349        C  0.85733721  0.48026684  0.08222673    -0.05900
C350        C  0.87860055  0.99960041  0.09945156    -0.17100
C351        C  0.87682337  0.00643796  0.14123295     0.11300
C352        C  0.85517969  0.49370224  0.16466865    -0.05900
C353        C  0.82813353  0.48347110  0.14495117    -0.17100
C354        C  0.82860737  0.47692799  0.10296498     0.11300
S355        S  0.90033158  0.03737595  0.16349552    -0.32100
S356        S  0.79200377  0.46880235  0.07708174    -0.32100
H357        H  0.77337844  0.46736851  0.11297608     0.29300
H358        H  0.91917495  0.04212018  0.12836458     0.29300
H359        H  0.89555747  0.01162678  0.08080848     0.19900
H360        H  0.80716756  0.47985453  0.16265880     0.19900
C361        C  0.77095390  0.14216242  0.26505257    -0.05900
C362        C  0.76094597  0.11740171  0.23932538    -0.17100
C363        C  0.77772239  0.09007401  0.23559359     0.11300
C364        C  0.80601118  0.08709823  0.25720519    -0.05900
C365        C  0.81574102  0.11135945  0.28401155    -0.17100
C366        C  0.79878137  0.13885500  0.28786077     0.11300
S367        S  0.76067055  0.05920268  0.20484455    -0.32100
S368        S  0.81477113  0.16913770  0.32046905    -0.32100
H369        H  0.80600045  0.19325407  0.29400123     0.29300
H370        H  0.76981876  0.03566685  0.23207453     0.29300
H371        H  0.73934958  0.11923715  0.22234150     0.19900
H372        H  0.83718018  0.10912821  0.30122516     0.19900
C373        C  0.80935602  0.38666312  0.24324938    -0.05900
C374        C  0.82332646  0.36211438  0.26416246    -0.17100
C375        C  0.81149359  0.33181959  0.26066785     0.11300
C376        C  0.78457970  0.32563999  0.23648789    -0.05900
C377        C  0.77107566  0.35005171  0.21477309    -0.17100
C378        C  0.78303589  0.38033293  0.21788525     0.11300
S379        S  0.83185963  0.30183099  0.28756793    -0.32100
S380        S  0.76260420  0.41112342  0.19244115    -0.32100
H381        H  0.74402741  0.39214707  0.16647316     0.29300
H382        H  0.82150057  0.27753725  0.26139528     0.29300
H383        H  0.84378541  0.36655056  0.28294643     0.19900
H384        H  0.74995453  0.34563946  0.19741581     0.19900
C385        C  0.80272375  0.07171708  0.99083792    -0.05900
C386        C  0.80792346  0.15688709  0.45790781    -0.17100
C387        C  0.79450872  0.18653780  0.45825928     0.11300
C388        C  0.76896880  0.12767799  0.98961426    -0.05900
C389        C  0.75838019  0.10209161  0.01227913    -0.17100
C390        C  0.77454593  0.07426248  0.01268139     0.11300
S391        S  0.80829460  0.21378672  0.42037633    -0.32100
S392        S  0.75716156  0.04236259  0.03989039    -0.32100
H393        H  0.76773292  0.01953490  0.01191867     0.29300
H394        H  0.80556904  0.23979687  0.44676103     0.29300
H395        H  0.82524055  0.15153958  0.43466176     0.19900
H396        H  0.73679446  0.10370371  0.02927215     0.19900
C397        C  0.80864119  0.37206692  0.99999616    -0.05900
C398        C  0.78339756  0.36850255  0.02737770    -0.17100
C399        C  0.76785569  0.34004728  0.03176283     0.11300
C400        C  0.77824923  0.31372818  0.00950101    -0.03500
C401        C  0.79359882  0.38168606  0.47636444    -0.17100
C402        C  0.81393619  0.40732106  0.47690793     0.11300
S403        S  0.73356454  0.33953954  0.06358984    -0.32100
S404        S  0.84879397  0.40448279  0.44650450    -0.32100
H405        H  0.86666674  0.42400778  0.47260489     0.29300
H406        H  0.71610145  0.32118349  0.03548629     0.29300
H407        H  0.77500610  0.38846230  0.04438620     0.19900
H408        H  0.79920067  0.36161761  0.45742013     0.19900
C409        C  0.70953369  0.25414351  0.33778684    -0.05900
C410        C  0.70786570  0.28677872  0.34295191    -0.17100
C411        C  0.70059057  0.29991448  0.38052647     0.11300
C412        C  0.69474003  0.27976372  0.41261439    -0.05900
C413        C  0.68635705  0.24878707  0.40396912    -0.17100
C414        C  0.69460032  0.23527103  0.36701447     0.11300
S415        S  0.69268492  0.34063547  0.38266656    -0.32100
S416        S  0.68307974  0.19547475  0.35728254    -0.32100
H417        H  0.66917671  0.18969277  0.39612988     0.29300
H418        H  0.67290004  0.33877463  0.41737221     0.29300
H419        H  0.70955653  0.30234189  0.31682027     0.19900
H420        H  0.67757921  0.23410581  0.42852886     0.19900
C421        C  0.70370958  0.22008228  0.08638595    -0.05900
C422        C  0.69801118  0.24959245  0.10288395    -0.17100
C423        C  0.69809122  0.25433851  0.14471213     0.11300
C424        C  0.70468481  0.22864637  0.16949223    -0.05900
C425        C  0.69994634  0.19865848  0.15351870    -0.17100
C426        C  0.69870170  0.19399440  0.11104764     0.11300
S427        S  0.68877067  0.29255959  0.16485688    -0.32100
S428        S  0.68592045  0.15695081  0.09039415    -0.32100
H429        H  0.68107027  0.14239369  0.12894152     0.29300
H430        H  0.68127800  0.30631807  0.12656322     0.29300
H431        H  0.69436422  0.26911657  0.08263044     0.19900
H432        H  0.69631492  0.17930010  0.17395538     0.19900
C433        C  0.70778010  0.22642007  0.95999043     0.30200
C434        C  0.70524037  0.28435334  0.53863457     0.30200
C435        C  0.67610740  0.22928013  0.98038663    -0.06000
C436        C  0.71908997  0.19413438  0.97434933    -0.06800
C437        C  0.73009112  0.24791954  0.98351747    -0.06700
C438        C  0.67268476  0.27960498  0.52127987    -0.06000
C439        C  0.72667447  0.26192001  0.51561331    -0.06800
C440        C  0.71520491  0.31591117  0.52023265    -0.06700
C441        C  0.64319725  0.27415684  0.53677322    -0.32000
N442        N  0.62778285  0.23457757  0.00272337     0.14500
C443        C  0.64590169  0.23495160  0.96816823    -0.32100
H444        H  0.63785717  0.23942426  0.93684054     0.16400
C445        C  0.74767976  0.23912967  0.52575240    -0.31000
N446        N  0.75659695  0.22408880  0.49032229     0.13200
C447        C  0.73954501  0.17218837  0.95886204    -0.31000
C448        C  0.73564072  0.33886097  0.53332787    -0.31300
N449        N  0.74612409  0.35444461  0.49957858     0.13700
H450        H  0.74390727  0.34274288  0.56494551     0.16300
C451        C  0.75070730  0.27110936  0.97339602    -0.31300
H452        H  0.75608682  0.27904942  0.94228108     0.16300
H453        H  0.74623824  0.16907194  0.92655717     0.16300
H454        H  0.63681677  0.27137624  0.56923318     0.16400
H455        H  0.75438311  0.23260429  0.55701350     0.16300
C456        C  0.71022691  0.26238926  0.70940373     0.30200
C457        C  0.71242701  0.25581559  0.79114705     0.30200
C458        C  0.67868455  0.26055870  0.73051030    -0.06000
C459        C  0.72781616  0.23328506  0.72357854    -0.06800
C460        C  0.72817455  0.28776772  0.73275068    -0.06700
C461        C  0.67974653  0.25733222  0.77253903    -0.06000
C462        C  0.72939775  0.23097079  0.76623643    -0.06800
C463        C  0.72916418  0.28554208  0.77563453    -0.06700
C464        C  0.64938620  0.25586581  0.78666261    -0.32000
N465        N  0.63003158  0.25836434  0.75332117     0.14500
C466        C  0.64778792  0.26117603  0.71861962    -0.32100
H467        H  0.63895311  0.26317212  0.68712324     0.16400
C468        C  0.75112192  0.20930114  0.77614229    -0.31000
N469        N  0.76181240  0.19663041  0.74039483     0.13200
C470        C  0.74813401  0.21127400  0.70770602    -0.31000
C471        C  0.74939654  0.30908817  0.78918501    -0.31300
N472        N  0.76035572  0.32443957  0.75491381     0.13700
H473        H  0.75587276  0.31435234  0.82117578     0.16300
C474        C  0.74830062  0.31042531  0.72063132    -0.31300
H475        H  0.75365813  0.31661089  0.68876235     0.16300
H476        H  0.75339171  0.20687852  0.67510594     0.16300
H477        H  0.64200136  0.25293549  0.81865571     0.16400
H478        H  0.75824749  0.20274335  0.80720852     0.16300
C479        C  0.86292940  0.47398781  0.95432369     0.30200
C480        C  0.86030211  0.53812645  0.53600858     0.30200
C481        C  0.89405625  0.46932360  0.97649691    -0.06000
C482        C  0.84686489  0.00194199  0.97300528    -0.06800
C483        C  0.84326454  0.44711350  0.97323733    -0.06700
C484        C  0.89260781  0.53743993  0.51565377    -0.06000
C485        C  0.84208584  0.06400058  0.51235244    -0.06800
C486        C  0.84528607  0.50824764  0.51799351    -0.06700
C487        C  0.91899287  0.02443965  0.52887663    -0.32000
N488        N  0.93595218  0.01490468  0.49571838     0.14500
C489        C  0.92468714  0.96761724  0.96365135    -0.32100
H490        H  0.93360866  0.96707001  0.93207916     0.16400
C491        C  0.82785486  0.09119525  0.52391363    -0.31000
N492        N  0.81698786  0.10539456  0.48913811     0.13200
C493        C  0.83138761  0.02782228  0.95899829    -0.31000
C494        C  0.83361646  0.48034874  0.53276320    -0.31300
N495        N  0.82506257  0.46210586  0.49979035     0.13700
H496        H  0.83127997  0.47373834  0.56503082     0.16300
C497        C  0.83125020  0.41824714  0.96150502    -0.31300
H498        H  0.82922113  0.40931684  0.92990485     0.16300
H499        H  0.82723361  0.03403166  0.92676964     0.16300
H500        H  0.92586927  0.02092064  0.56100551     0.16400
H501        H  0.82609541  0.10011867  0.55546435     0.16300
C502        C  0.86354481  0.51250780  0.70555800     0.30200
C503        C  0.85858369  0.50962015  0.78844237     0.30200
C504        C  0.89368231  0.50565114  0.72797525    -0.06000
C505        C  0.84811226  0.04074782  0.72805284    -0.06800
C506        C  0.84241064  0.48596631  0.72089765    -0.06700
C507        C  0.89169723  0.50471554  0.77103122    -0.06000
C508        C  0.84594544  0.03804256  0.77017732    -0.06800
C509        C  0.84047883  0.48446511  0.76409589    -0.06700
C510        C  0.91751027  0.99334641  0.78153987    -0.32000
N511        N  0.93640648  0.99126532  0.74779787     0.14500
C512        C  0.91956228  0.99690220  0.71304064    -0.32100
H513        H  0.92869533  0.99736200  0.68160237     0.16400
C514        C  0.83302716  0.06516482  0.78548440    -0.31000
N515        N  0.82739863  0.08390969  0.75249140     0.13200
C516        C  0.83669241  0.06915451  0.71736984    -0.31000
C517        C  0.83333742  0.45426905  0.77379675    -0.31300
N518        N  0.82783193  0.43795321  0.73851087     0.13700
H519        H  0.83263245  0.44433607  0.80462739     0.16300
C520        C  0.83517737  0.45647321  0.70578175    -0.31300
H521        H  0.83617974  0.44887563  0.67351439     0.16300
H522        H  0.83377949  0.07790697  0.68605809     0.16300
H523        H  0.92497854  0.99032537  0.81354094     0.16400
H524        H  0.82652956  0.07003381  0.81750631     0.16300
O525        O  0.57559708  0.21940894  0.00506655    -0.72800
O526        O  0.48459056  0.23982886  0.00377714    -0.73700
O527        O  0.53067529  0.22962996  0.93132307    -0.62400
O528        O  0.53577310  0.22700063  0.57783740    -0.70800
O529        O  0.52563386  0.27575256  0.57839541    -0.70300
O530        O  0.54069580  0.27866550  0.93168620    -0.61600
O531        O  0.49582067  0.28977046  0.00497072    -0.74100
O532        O  0.57118386  0.28669621  0.50591436    -0.72900
Cu533      Cu  0.52985282  0.22824077  0.00476737     1.04600
Cu534      Cu  0.52537261  0.27746136  0.50445755     1.04300
C535        C  0.59545369  0.24135381  0.00422909     0.93400
C536        C  0.47589305  0.26792827  0.00336772     0.92600
C537        C  0.53569990  0.25401593  0.90759939     0.84700
C538        C  0.53126622  0.25154243  0.60220134     0.91000
O539        O  0.53489332  0.27840845  0.82895135    -0.72800
O540        O  0.53146602  0.27705712  0.68141214    -0.73700
O541        O  0.48662761  0.27521278  0.75736718    -0.62400
O542        O  0.58059023  0.28114062  0.75358003    -0.70800
O543        O  0.58317754  0.23022897  0.75508440    -0.70300
O544        O  0.48971711  0.22426589  0.75602443    -0.61600
O545        O  0.53525051  0.22735126  0.68130080    -0.74100
O546        O  0.53637722  0.22850330  0.82891569    -0.72900
Cu547      Cu  0.53337243  0.27952400  0.75532565     1.04600
Cu548      Cu  0.53629089  0.22609235  0.75531222     1.04300
C549        C  0.53567261  0.25364294  0.85285444     0.93400
C550        C  0.53267427  0.25198684  0.65728045     0.92600
C551        C  0.47349574  0.24868172  0.75729042     0.84700
C552        C  0.59670580  0.25654140  0.75413711     0.91000
O553        O  0.08569426  0.47486686  0.00078156    -0.72800
O554        O  0.99458376  0.45153315  0.99994942    -0.73700
O555        O  0.03960551  0.46376489  0.92649351    -0.62400
O556        O  0.02277373  0.46622039  0.57287085    -0.70800
O557        O  0.03483137  0.01468614  0.57139281    -0.70300
O558        O  0.02809871  0.01405637  0.92485003    -0.61600
O559        O  0.98917224  0.02666326  0.49770480    -0.74100
O560        O  0.07980428  0.00468710  0.49644537    -0.72900
Cu561      Cu  0.04032768  0.46190911  0.00021192     1.04600
Cu562      Cu  0.03487109  0.01649441  0.49739738     1.04300
C563        C  0.09434128  0.00429905  0.99661458     0.93400
C564        C  0.96815105  0.00580253  0.49662913     0.92600
C565        C  0.03289606  0.98971837  0.90031945     0.84700
C566        C  0.02904436  0.99037422  0.59511502     0.91000
O567        O  0.98539429  0.46515252  0.75170599    -0.72800
O568        O  0.07832198  0.46145940  0.74785384    -0.73700
O569        O  0.03320160  0.46345542  0.82347180    -0.62400
O570        O  0.02958632  0.46462959  0.67570727    -0.70800
O571        O  0.03123775  0.01503400  0.67471874    -0.70300
O572        O  0.03134825  0.01479228  0.82217235    -0.61600
O573        O  0.07782021  0.01528132  0.74960611    -0.74100
O574        O  0.98480277  0.01569045  0.74835371    -0.72900
Cu575      Cu  0.03160412  0.46207617  0.74959876     1.04600
Cu576      Cu  0.03130685  0.01671229  0.74868520     1.04300
C577        C  0.96948157  0.99040104  0.74880016     0.93400
C578        C  0.09210333  0.98967684  0.74859437     0.92600
C579        C  0.03196060  0.98978218  0.84558788     0.84700
C580        C  0.02973656  0.99018645  0.65014344     0.91000
C581        C  0.36265491  0.27627383  0.95788779     0.30200
C582        C  0.35791188  0.21716394  0.53808171     0.30200
C583        C  0.39490691  0.27649829  0.97819294    -0.06000
C584        C  0.34875293  0.30667834  0.97600941    -0.06800
C585        C  0.34347645  0.25142720  0.97995747    -0.06700
C586        C  0.38921951  0.21989868  0.51639346    -0.06000
C587        C  0.33694950  0.24007601  0.51531003    -0.06800
C588        C  0.34447718  0.18577411  0.52359177    -0.06700
C589        C  0.41877549  0.22772759  0.52969852    -0.32000
N590        N  0.43743610  0.22976659  0.49617861     0.14500
C591        C  0.42580625  0.27571613  0.96641331    -0.32100
H592        H  0.43457560  0.27415561  0.93484003     0.16400
C593        C  0.31812856  0.26458810  0.52630097    -0.31000
N594        N  0.32441608  0.34995480  0.99546342     0.13200
C595        C  0.33465204  0.33323408  0.96192522    -0.31000
C596        C  0.32866497  0.16069595  0.54035775    -0.31300
N597        N  0.31954847  0.14143930  0.50860622     0.13700
H598        H  0.32318879  0.15728807  0.57296317     0.16300
C599        C  0.32425206  0.22708903  0.96804867    -0.31300
H600        H  0.32024594  0.21862549  0.93656144     0.16300
H601        H  0.33191925  0.33985565  0.92962921     0.16300
H602        H  0.42608668  0.23223068  0.56161582     0.16400
H603        H  0.31308224  0.27261336  0.55764897     0.16300
C604        C  0.36274734  0.24658673  0.70681396     0.30200
C605        C  0.35682637  0.24665830  0.78946743     0.30200
C606        C  0.39282318  0.24245425  0.73102457    -0.06000
C607        C  0.34898238  0.27670767  0.72493540    -0.06800
C608        C  0.34064454  0.22183506  0.72410086    -0.06700
C609        C  0.39040429  0.24287777  0.77365689    -0.06000
C610        C  0.34760632  0.27697553  0.76807658    -0.06800
C611        C  0.33807888  0.22143622  0.76664080    -0.06700
C612        C  0.42054460  0.24615157  0.78894633    -0.32000
N613        N  0.44042903  0.24612830  0.75608111     0.14500
C614        C  0.42366388  0.24413726  0.72054654    -0.32100
H615        H  0.43314553  0.24555415  0.68930846     0.16400
C616        C  0.33662148  0.30528571  0.78057338    -0.31000
N617        N  0.32797447  0.32121959  0.74650158     0.13200
C618        C  0.33472102  0.30371002  0.71209751    -0.31000
C619        C  0.31989701  0.19602466  0.77670976    -0.31300
N620        N  0.31155084  0.18107090  0.74064630     0.13700
H621        H  0.31422659  0.18835843  0.80781436     0.16300
C622        C  0.32346195  0.19722636  0.70831886    -0.31300
H623        H  0.32060730  0.19082633  0.67570216     0.16300
H624        H  0.32828938  0.30949857  0.68049703     0.16300
H625        H  0.42749562  0.24970105  0.82112961     0.16400
H626        H  0.33381153  0.31356549  0.81234773     0.16300
C627        C  0.20533736  0.52787568  0.95908319     0.30200
C628        C  0.20031879  0.46185870  0.54105389     0.30200
C629        C  0.22762271  0.50383057  0.97778725    -0.06000
C630        C  0.21769506  0.05955102  0.97774267    -0.06800
C631        C  0.17404703  0.52240534  0.97988840    -0.06700
C632        C  0.21250641  0.43205105  0.51954373    -0.06000
C633        C  0.22328735  0.98592575  0.52284103    -0.06800
C634        C  0.16894479  0.46584936  0.52030836    -0.06700
C635        C  0.22875687  0.40581662  0.53023324    -0.32000
N636        N  0.25938095  0.46574259  0.99698806     0.14500
C637        C  0.24725538  0.48069692  0.96362552    -0.32100
H638        H  0.25173694  0.47460708  0.93132422     0.16400
C639        C  0.24333393  0.00841190  0.53935629    -0.31000
N640        N  0.24681199  0.09904601  0.00111638     0.13200
C641        C  0.23718987  0.08351336  0.96624061    -0.31000
C642        C  0.13835350  0.46663147  0.53288511    -0.31300
N643        N  0.12669771  0.01215765  0.99674822     0.13700
H644        H  0.12988046  0.46571006  0.56465172     0.16300
C645        C  0.14391697  0.51608663  0.96715551    -0.31300
H646        H  0.13552043  0.51442785  0.93521921     0.16300
H647        H  0.24492487  0.08857257  0.93494696     0.16300
H648        H  0.23441157  0.39839371  0.56146916     0.16400
H649        H  0.24665793  0.01406029  0.57210596     0.16300
C650        C  0.20771998  0.48847357  0.70934699     0.30200
C651        C  0.20759383  0.49943491  0.79043509     0.30200
C652        C  0.22851455  0.46743001  0.73440889    -0.06000
C653        C  0.21900107  0.02224693  0.71823454    -0.06800
C654        C  0.17601924  0.48664470  0.72979362    -0.06700
C655        C  0.22841725  0.47212833  0.77693580    -0.06000
C656        C  0.21985416  0.02739436  0.76074900    -0.06800
C657        C  0.17585461  0.49263812  0.77130482    -0.06700
C658        C  0.24905777  0.45073997  0.79313281    -0.32000
N659        N  0.26098244  0.43381189  0.76072084     0.14500
C660        C  0.24951653  0.44510073  0.72483101    -0.32100
H661        H  0.25499222  0.43649132  0.69384462     0.16400
C662        C  0.23569891  0.05459642  0.76815495    -0.31000
N663        N  0.24289701  0.06765586  0.73127789     0.13200
C664        C  0.23377799  0.04766566  0.70016210    -0.31000
C665        C  0.14530263  0.49236326  0.78415187    -0.31300
N666        N  0.12521303  0.98956090  0.74916919     0.13700
H667        H  0.13684460  0.49754350  0.81525832     0.16300
C668        C  0.14569528  0.48211980  0.71689810    -0.31300
H669        H  0.13765348  0.47802606  0.68524776     0.16300
H670        H  0.23790095  0.05118969  0.66716572     0.16300
H671        H  0.25474405  0.44757966  0.82575483     0.16400
H672        H  0.24211083  0.06428777  0.79832393     0.16300
C673        C  0.20339011  0.50673304  0.83402872    -0.05900
C674        C  0.19722190  0.03873633  0.84336254    -0.17100
C675        C  0.19734676  0.04703139  0.88466947     0.11300
C676        C  0.20060237  0.52294371  0.91495619    -0.05900
C677        C  0.19501871  0.49194427  0.90322511    -0.17100
C678        C  0.19665683  0.48330556  0.86240101     0.11300
S679        S  0.18434770  0.08542250  0.89760163    -0.32100
S680        S  0.18738922  0.44374303  0.84767489    -0.32100
H681        H  0.18251415  0.43228786  0.88810867     0.29300
H682        H  0.16734143  0.07668755  0.93293354     0.29300
H683        H  0.19103156  0.05598069  0.82068513     0.19900
H684        H  0.19090768  0.47439602  0.92647586     0.19900
C685        C  0.19594180  0.46663643  0.58498816    -0.05900
C686        C  0.19756922  0.44206195  0.61196778    -0.17100
C687        C  0.19876138  0.44836155  0.65394594     0.11300
C688        C  0.20392332  0.47968493  0.66631196    -0.05900
C689        C  0.19218464  0.00402816  0.63708016    -0.17100
C690        C  0.18741896  0.99713536  0.59625702     0.11300
S691        S  0.18914186  0.41736364  0.68956267    -0.32100
S692        S  0.17398432  0.02809459  0.56275467    -0.32100
H693        H  0.18265274  0.05296882  0.58903329     0.29300
H694        H  0.19201597  0.39282599  0.66071311     0.29300
H695        H  0.19596554  0.41861486  0.60053428     0.19900
H696        H  0.18823714  0.02727512  0.64839915     0.19900
C697        C  0.29421177  0.15244163  0.73692071    -0.05900
C698        C  0.26482651  0.15028486  0.75496545    -0.17100
C699        C  0.24662684  0.12345545  0.75045846     0.11300
C700        C  0.25809656  0.09745441  0.72829298    -0.05900
C701        C  0.28725859  0.09979122  0.70947457    -0.17100
C702        C  0.30549599  0.12673718  0.71394230     0.11300
S703        S  0.20858651  0.12385677  0.77329209    -0.32100
S704        S  0.34392437  0.12605865  0.69242554    -0.32100
H705        H  0.35745523  0.14436460  0.72429036     0.29300
H706        H  0.19539367  0.10270409  0.74454135     0.29300
H707        H  0.25578137  0.16993921  0.77203602     0.19900
H708        H  0.29661625  0.07985478  0.69339283     0.19900
C709        C  0.31101570  0.34976165  0.74888353    -0.05900
C710        C  0.28655771  0.35222167  0.77761010    -0.17100
C711        C  0.27039748  0.37989461  0.78332354     0.11300
C712        C  0.27969669  0.40641401  0.76132593    -0.05900
C713        C  0.30418026  0.40393720  0.73261960    -0.17100
C714        C  0.31954770  0.37591456  0.72565170     0.11300
S715        S  0.23651938  0.38023298  0.81602957    -0.32100
S716        S  0.35028157  0.37407732  0.68778032    -0.32100
H717        H  0.34666122  0.40398579  0.67192414     0.29300
H718        H  0.23363409  0.34803827  0.82015218     0.29300
H719        H  0.27974115  0.33202770  0.79505506     0.19900
H720        H  0.31063000  0.42407076  0.71478197     0.19900
C721        C  0.26373662  0.12798141  0.00179704    -0.05900
C722        C  0.25319613  0.15234778  0.97695464    -0.17100
C723        C  0.26753203  0.18153140  0.97828061     0.11300
C724        C  0.29365080  0.18653122  0.00415899    -0.05900
C725        C  0.31457611  0.08777596  0.53383436    -0.17100
C726        C  0.30005412  0.05842647  0.53297241     0.11300
S727        S  0.25064067  0.21188563  0.94787768    -0.32100
S728        S  0.31905095  0.02733158  0.55936344    -0.32100
H729        H  0.30828649  0.00376247  0.53232359     0.29300
H730        H  0.25997408  0.23613621  0.97482846     0.29300
H731        H  0.23299949  0.14879671  0.95728048     0.19900
H732        H  0.33648919  0.09074037  0.54992760     0.19900
C733        C  0.30801113  0.37913757  0.99464448    -0.05900
C734        C  0.30065391  0.33207291  0.51465971    -0.17100
C735        C  0.28487360  0.36032296  0.51541658     0.11300
C736        C  0.27723584  0.43741575  0.99541135    -0.05900
C737        C  0.26895803  0.41394754  0.96654271    -0.17100
C738        C  0.28351693  0.38499313  0.96626536     0.11300
S739        S  0.30221158  0.39179659  0.54468287    -0.32100
S740        S  0.26787922  0.35589709  0.93126304    -0.32100
H741        H  0.27176060  0.33137666  0.95920160     0.29300
H742        H  0.29179908  0.41509922  0.51793579     0.29300
H743        H  0.32181562  0.32999291  0.53251755     0.19900
H744        H  0.24986800  0.41768629  0.94520580     0.19900
C745        C  0.36166505  0.26768902  0.91350884    -0.05900
C746        C  0.33470522  0.27587943  0.89184512    -0.17100
C747        C  0.32818654  0.26224041  0.85369060     0.11300
C748        C  0.35195359  0.24569089  0.83458636    -0.05900
C749        C  0.37390419  0.23138155  0.85885233    -0.17100
C750        C  0.37806929  0.24090960  0.89943287     0.11300
S751        S  0.28994873  0.26442396  0.83079063    -0.32100
S752        S  0.39953771  0.21493506  0.93287534    -0.32100
H753        H  0.40591381  0.19178915  0.90303611     0.29300
H754        H  0.27679823  0.28268980  0.86259024     0.29300
H755        H  0.31731338  0.29006540  0.90646901     0.19900
H756        H  0.38793623  0.21318675  0.84563887     0.19900
C757        C  0.36258894  0.22426284  0.58217983    -0.05900
C758        C  0.36674630  0.25582636  0.59254409    -0.17100
C759        C  0.37090410  0.26489133  0.63318198     0.11300
C760        C  0.36943575  0.24166028  0.66276584    -0.05900
C761        C  0.37690983  0.21127904  0.65093894    -0.17100
C762        C  0.37428280  0.20231338  0.60993586     0.11300
S763        S  0.38541117  0.30346768  0.64283514    -0.32100
S764        S  0.38934031  0.16514680  0.59409878    -0.32100
H765        H  0.40517284  0.15893467  0.63152761     0.29300
H766        H  0.40004281  0.29693244  0.68091444     0.29300
H767        H  0.36859549  0.27330030  0.56871022     0.19900
H768        H  0.38272552  0.19426099  0.67420984     0.19900
C769        C  0.85464451  0.50887809  0.83402789    -0.05900
C770        C  0.87676166  0.01654236  0.85479996    -0.17100
C771        C  0.88213273  0.00559896  0.89404947     0.11300
C772        C  0.86473530  0.48106269  0.90956312    -0.05900
C773        C  0.83725193  0.47521531  0.88739307    -0.17100
C774        C  0.83049769  0.49223715  0.85258570     0.11300
S775        S  0.90793400  0.02927946  0.92622787    -0.32100
S776        S  0.79080825  0.49337125  0.83479506    -0.32100
H777        H  0.79469029  0.51909017  0.80896500     0.29300
H778        H  0.90541777  0.05665655  0.90320982     0.29300
H779        H  0.89218156  0.03364913  0.84150176     0.19900
H780        H  0.81896973  0.46114147  0.90042893     0.19900
C781        C  0.85838764  0.54075901  0.58148904    -0.05900
C782        C  0.88074665  0.05058697  0.60347076    -0.17100
C783        C  0.88268092  0.04212017  0.64465823     0.11300
C784        C  0.86477694  0.51940398  0.66088094    -0.05900
C785        C  0.83627814  0.51627307  0.64002569    -0.17100
C786        C  0.83202710  0.52981512  0.60195953     0.11300
S787        S  0.91111476  0.06206578  0.67715786    -0.32100
S788        S  0.79361027  0.53236918  0.57963591    -0.32100
H789        H  0.77959493  0.51035925  0.60562806     0.29300
H790        H  0.92041444  0.08421875  0.64781874     0.29300
H791        H  0.89897482  0.06417469  0.58945735     0.19900
H792        H  0.81643065  0.50599613  0.65514247     0.19900
C793        C  0.78046030  0.16928572  0.73956583    -0.05900
C794        C  0.76699800  0.14167309  0.72495100    -0.17100
C795        C  0.78119331  0.11324063  0.73168389     0.11300
C796        C  0.81012747  0.11211442  0.75211630    -0.05900
C797        C  0.82385823  0.13968733  0.76656359    -0.17100
C798        C  0.80925391  0.16818993  0.76073416     0.11300
S799        S  0.76088634  0.07876307  0.71489935    -0.32100
S800        S  0.82847010  0.20244951  0.78063966    -0.32100
H801        H  0.81379592  0.22325957  0.75379309     0.29300
H802        H  0.77258197  0.05988907  0.74665933     0.29300
H803        H  0.74440259  0.14218473  0.71032459     0.19900
H804        H  0.84632978  0.13901054  0.78155100     0.19900
C805        C  0.81312839  0.40783248  0.73849854    -0.05900
C806        C  0.82343028  0.38521930  0.76666326    -0.17100
C807        C  0.80673063  0.35760093  0.77295859     0.11300
C808        C  0.77826065  0.35277565  0.75209324    -0.05900
C809        C  0.76808699  0.37545407  0.72409488    -0.17100
C810        C  0.78514441  0.40253244  0.71677214     0.11300
S811        S  0.82343348  0.32908595  0.80647691    -0.32100
S812        S  0.76972134  0.43105587  0.68178081    -0.32100
H813        H  0.74327433  0.41429549  0.66900722     0.29300
H814        H  0.81321079  0.30360483  0.78236061     0.29300
H815        H  0.84474485  0.38918974  0.78385822     0.19900
H816        H  0.74628663  0.37186537  0.70800294     0.19900
C817        C  0.80056582  0.13469778  0.48833123    -0.05900
C818        C  0.81308824  0.09698986  0.96723481    -0.17100
C819        C  0.79676491  0.12496517  0.96674210     0.11300
C820        C  0.77234454  0.19446686  0.48905542    -0.05900
C821        C  0.76469540  0.17210257  0.51891575    -0.17100
C822        C  0.77806126  0.14267266  0.51875480     0.11300
S823        S  0.81348216  0.15671135  0.93855526    -0.32100
S824        S  0.76368048  0.11600060  0.55704063    -0.32100
H825        H  0.76483310  0.09019394  0.53006669     0.29300
H826        H  0.80320769  0.17973053  0.96642611     0.29300
H827        H  0.83464653  0.09520134  0.95023092     0.19900
H828        H  0.74729392  0.17729155  0.54211282     0.19900
C829        C  0.80705809  0.43370365  0.50170770    -0.05900
C830        C  0.78018629  0.43305702  0.52620643    -0.17100
C831        C  0.75976605  0.40764451  0.52536250     0.11300
C832        C  0.76651530  0.38126959  0.50055691    -0.03500
C833        C  0.80379323  0.31717277  0.98273619    -0.17100
C834        C  0.81911158  0.34570501  0.97800083     0.11300
S835        S  0.72425293  0.41131804  0.55416449    -0.32100
S836        S  0.85246284  0.34656463  0.94457014    -0.32100
H837        H  0.86912241  0.36807353  0.96923982     0.29300
H838        H  0.70597008  0.39503063  0.52473765     0.29300
H839        H  0.77423569  0.45330414  0.54461643     0.19900
H840        H  0.81182199  0.29731338  0.96523095     0.19900
C841        C  0.70984118  0.24797483  0.83465222    -0.05900
C842        C  0.70738356  0.27220977  0.86292134    -0.17100
C843        C  0.70191485  0.26600128  0.90393354     0.11300
C844        C  0.70496538  0.23469141  0.91666471    -0.05900
C845        C  0.70171882  0.21079327  0.88799242    -0.17100
C846        C  0.70148131  0.21742865  0.84651290     0.11300
S847        S  0.69129485  0.29952264  0.93549193    -0.32100
S848        S  0.68707352  0.18744464  0.81119085    -0.32100
H849        H  0.69770211  0.16246087  0.83486788     0.29300
H850        H  0.68408001  0.28626231  0.97378114     0.29300
H851        H  0.70749048  0.29593372  0.85264724     0.19900
H852        H  0.69731860  0.18740690  0.89800819     0.19900
C853        C  0.70402892  0.27861678  0.58284710    -0.05900
C854        C  0.69997253  0.30359264  0.60970141    -0.17100
C855        C  0.69803016  0.29832087  0.65163289     0.11300
C856        C  0.70610719  0.26852059  0.66564986    -0.05900
C857        C  0.70320314  0.24320215  0.63909377    -0.17100
C858        C  0.69968658  0.24795855  0.59738103     0.11300
S859        S  0.68318843  0.32880338  0.68516558    -0.32100
S860        S  0.68693453  0.21537237  0.56505645    -0.32100
H861        H  0.69427519  0.19189221  0.59333139     0.29300
H862        H  0.66989555  0.34639580  0.65318305     0.29300
H863        H  0.69640505  0.32658833  0.59793836     0.19900
H864        H  0.70174142  0.22004135  0.65123700     0.19900
C865        C  0.70106934  0.78560615  0.45539020     0.30200
C866        C  0.70846264  0.72086170  0.03899482     0.30200
C867        C  0.67083121  0.77918918  0.47826166    -0.06000
C868        C  0.72536834  0.76267057  0.47253758    -0.06800
C869        C  0.71215471  0.81684636  0.47514236    -0.06700
C870        C  0.67661345  0.72763806  0.02097283    -0.06000
C871        C  0.71851039  0.69126270  0.01615597    -0.06800
C872        C  0.73055370  0.74540012  0.02036197    -0.06700
C873        C  0.64703357  0.73241693  0.03603574    -0.32000
N874        N  0.62377301  0.77058850  0.50337109     0.14500
C875        C  0.63997655  0.77490427  0.46776555    -0.32100
H876        H  0.63010328  0.77478494  0.43665035     0.16400
C877        C  0.73998497  0.66924683  0.02622790    -0.31000
N878        N  0.75045390  0.65560898  0.99089770     0.13200
C879        C  0.74502480  0.73954041  0.45777052    -0.31000
C880        C  0.75064859  0.76875835  0.03387025    -0.31300
N881        N  0.76117513  0.78440041  0.99997248     0.13700
H882        H  0.75605887  0.77490264  0.06593913     0.16300
C883        C  0.73295933  0.83989102  0.46356419    -0.31300
H884        H  0.74119797  0.84442173  0.43237904     0.16300
H885        H  0.74650375  0.73143132  0.42573171     0.16300
H886        H  0.63988205  0.73258747  0.06853455     0.16400
H887        H  0.74843069  0.66427234  0.05731579     0.16300
C888        C  0.70978424  0.73324332  0.21239672     0.30200
C889        C  0.71295529  0.74365202  0.29361761     0.30200
C890        C  0.67952042  0.74326598  0.23203889    -0.06000
C891        C  0.71913377  0.70488717  0.23787311    -0.06800
C892        C  0.73469423  0.75722058  0.22579227    -0.06700
C893        C  0.68109411  0.74910074  0.27349149    -0.06000
C894        C  0.72140651  0.71024427  0.28099151    -0.06800
C895        C  0.73636098  0.76208408  0.26798896    -0.06700
C896        C  0.65110757  0.75504549  0.28701458    -0.32000
N897        N  0.63153056  0.75232571  0.25386984     0.14500
C898        C  0.64871808  0.74466753  0.21999769    -0.32100
H899        H  0.63942972  0.73945389  0.18922968     0.16400
C900        C  0.74393433  0.69014713  0.29549277    -0.31000
N901        N  0.75365013  0.67219761  0.26314365     0.13200
C902        C  0.73981865  0.68205440  0.22808523    -0.31000
C903        C  0.75982417  0.78304467  0.27598976    -0.31300
N904        N  0.77171237  0.79244041  0.23917942     0.13700
H905        H  0.76628890  0.79261164  0.30620774     0.16300
C906        C  0.75686533  0.77640376  0.20805916    -0.31300
H907        H  0.76069628  0.77979832  0.17501063     0.16300
H908        H  0.74611171  0.67430607  0.19698312     0.16300
H909        H  0.64387808  0.75928757  0.31892961     0.16400
H910        H  0.75328861  0.68951733  0.32683477     0.16300
C911        C  0.85769949  0.03326421  0.45184952     0.30200
C912        C  0.86004623  0.97453749  0.03611362     0.30200
C913        C  0.89082065  0.03395741  0.47159689    -0.06000
C914        C  0.84259321  0.56324082  0.47247647    -0.06800
C915        C  0.84313021  0.00537998  0.47463445    -0.06700
C916        C  0.89306514  0.97231219  0.01806481    -0.06000
C917        C  0.84748227  0.50363667  0.01624159    -0.06800
C918        C  0.84427852  0.94628657  0.01518070    -0.06700
C919        C  0.92311406  0.46866516  0.03369754    -0.32000
N920        N  0.94218162  0.46564311  0.00029340     0.14500
C921        C  0.91935526  0.52037970  0.46084594    -0.32100
H922        H  0.92571471  0.51260792  0.42979347     0.16400
C923        C  0.83216160  0.53019573  0.02850245    -0.31000
N924        N  0.82302080  0.54545297  0.99383131     0.13200
C925        C  0.82838273  0.59014838  0.45922270    -0.31000
C926        C  0.83316519  0.91796794  0.02777268    -0.31300
N927        N  0.82563421  0.90074638  0.99345798     0.13700
H928        H  0.83099155  0.91025005  0.05970233     0.16300
C929        C  0.83051257  0.97662386  0.46436648    -0.31300
H930        H  0.82683402  0.96694083  0.43352704     0.16300
H931        H  0.82361027  0.59613564  0.42703299     0.16300
H932        H  0.93098176  0.47080425  0.06575445     0.16400
H933        H  0.82707088  0.53726887  0.06024820     0.16300
C934        C  0.85734431  0.98710734  0.20917320     0.30200
C935        C  0.85956227  0.98553875  0.29231893     0.30200
C936        C  0.88985688  0.98135804  0.22732831    -0.06000
C937        C  0.84689515  0.52003731  0.23081506    -0.06800
C938        C  0.83824867  0.96084876  0.22896976    -0.06700
C939        C  0.89100372  0.98018545  0.27038788    -0.06000
C940        C  0.84765659  0.51941094  0.27307381    -0.06800
C941        C  0.83935758  0.95962610  0.27235305    -0.06700
C942        C  0.92080308  0.47845898  0.28325611    -0.32000
N943        N  0.93846964  0.47785496  0.24844301     0.14500
C944        C  0.91977473  0.48045307  0.21464647    -0.32100
H945        H  0.92783316  0.48098323  0.18265232     0.16400
C946        C  0.83566434  0.54720511  0.28723871    -0.31000
N947        N  0.82715080  0.56407837  0.25394204     0.13200
C948        C  0.83402811  0.54769651  0.21887023    -0.31000
C949        C  0.83169210  0.92929420  0.28264611    -0.31300
N950        N  0.82393462  0.91337696  0.24712696     0.13700
H951        H  0.83244860  0.91943128  0.31354172     0.16300
C952        C  0.82982832  0.93188730  0.21443407    -0.31300
H953        H  0.82958045  0.92408445  0.18215782     0.16300
H954        H  0.82858374  0.55464352  0.18730412     0.16300
H955        H  0.92979611  0.47723770  0.31477996     0.16400
H956        H  0.83165339  0.55412584  0.31924592     0.16300
O957        O  0.58210654  0.73578511  0.50490296    -0.72800
O958        O  0.49046455  0.71561698  0.49983387    -0.73700
O959        O  0.53784763  0.72783344  0.42966334    -0.62400
O960        O  0.53063782  0.73249575  0.07864161    -0.70800
O961        O  0.54096064  0.78144109  0.07865696    -0.70300
O962        O  0.52802262  0.77673332  0.43160606    -0.61600
O963        O  0.47983040  0.76538582  0.50189331    -0.74100
O964        O  0.58669167  0.77160172  0.00475200    -0.72900
Cu965      Cu  0.53677783  0.72468930  0.50302978     1.04600
Cu966      Cu  0.54138475  0.78241273  0.00461044     1.04300
C967        C  0.59137896  0.76381241  0.50547694     0.93400
C968        C  0.47062028  0.73726389  0.49876427     0.92600
C969        C  0.53365775  0.75279191  0.40683531     0.84700
C970        C  0.53593471  0.75709582  0.10263045     0.91000
O971        O  0.53623058  0.77942531  0.32976587    -0.72800
O972        O  0.53814560  0.78169531  0.18234675    -0.73700
O973        O  0.49102575  0.78335276  0.25579974    -0.62400
O974        O  0.58466572  0.77965777  0.25744096    -0.70800
O975        O  0.58221850  0.72872430  0.25307585    -0.70300
O976        O  0.48856265  0.73230500  0.25515298    -0.61600
O977        O  0.53453849  0.73187047  0.18060327    -0.74100
O978        O  0.53535177  0.72946931  0.32726478    -0.72900
Cu979      Cu  0.53768127  0.78260841  0.25637101     1.04600
Cu980      Cu  0.53516834  0.72908500  0.25393791     1.04300
C981        C  0.53517433  0.75396745  0.35232476     0.93400
C982        C  0.53623015  0.75699418  0.15750439     0.92600
C983        C  0.47512941  0.75842437  0.25619556     0.84700
C984        C  0.59824618  0.75363435  0.25507454     0.91000
O985        O  0.06815011  0.95487408  0.49698396    -0.72800
O986        O  0.97596053  0.97729317  0.49607896    -0.73700
O987        O  0.02356715  0.96539677  0.42337890    -0.62400
O988        O  0.04032747  0.96466186  0.07064982    -0.70800
O989        O  0.02853360  0.51205577  0.07465492    -0.70300
O990        O  0.03468910  0.51436758  0.42601776    -0.61600
O991        O  0.98321069  0.50123300  0.00097775    -0.74100
O992        O  0.07380329  0.52442125  0.00166530    -0.72900
Cu993      Cu  0.02204605  0.96441147  0.49685744     1.04600
Cu994      Cu  0.02818743  0.51399952  0.00117468     1.04300
C995        C  0.08812627  0.47692135  0.49905982     0.93400
C996        C  0.97457134  0.47297104  0.00062655     0.92600
C997        C  0.02954752  0.48967462  0.40205870     0.84700
C998        C  0.03393504  0.48767163  0.09812429     0.91000
O999        O  0.98960599  0.95624437  0.24529312    -0.72800
O1000       O  0.08233712  0.96814289  0.24950056    -0.73700
O1001       O  0.03372587  0.96374768  0.32106087    -0.62400
O1002       O  0.03723598  0.96348715  0.17349653    -0.70800
O1003       O  0.03074809  0.51243204  0.17685309    -0.70300
O1004       O  0.02969274  0.51356136  0.32343162    -0.61600
O1005       O  0.07705893  0.51738495  0.25098107    -0.74100
O1006       O  0.98370777  0.50811127  0.24917886    -0.72900
Cu1007     Cu  0.03597602  0.96139840  0.24730328     1.04600
Cu1008     Cu  0.03015977  0.51444532  0.25011942     1.04300
C1009       C  0.97139502  0.48116171  0.24831852     0.93400
C1010       C  0.09356388  0.49309102  0.25236009     0.92600
C1011       C  0.03056138  0.48893125  0.34746562     0.84700
C1012       C  0.03351448  0.48757037  0.15282359     0.91000
C1013       C  0.35627536  0.71054056  0.45731319     0.30200
C1014       C  0.36238641  0.77937372  0.04221935     0.30200
C1015       C  0.38944820  0.71693286  0.47523392    -0.06000
C1016       C  0.33761542  0.73824962  0.47548236    -0.06800
C1017       C  0.34408572  0.68275571  0.48189807    -0.06700
C1018       C  0.39423337  0.77722938  0.02185573    -0.06000
C1019       C  0.34867365  0.80876151  0.02175235    -0.06800
C1020       C  0.34191279  0.75393535  0.02297474    -0.06700
C1021       C  0.42456291  0.77624847  0.03560918    -0.32000
N1022       N  0.44332178  0.77567245  0.00187804     0.14500
C1023       C  0.41974914  0.72416241  0.46242175    -0.32100
H1024       H  0.42783738  0.72612082  0.43062192     0.16400
C1025       C  0.33458000  0.83624464  0.03319587    -0.31000
N1026       N  0.30907177  0.77917427  0.49488739     0.13200
C1027       C  0.32041746  0.76328812  0.46149977    -0.31000
C1028       C  0.32215216  0.73067051  0.03669654    -0.31300
N1029       N  0.31152217  0.71436216  0.00307854     0.13700
H1030       H  0.31677692  0.72529529  0.06882933     0.16300
C1031       C  0.32867616  0.65553360  0.47218758    -0.31300
H1032       H  0.32340868  0.64684123  0.44108283     0.16300
H1033       H  0.31703360  0.77026939  0.42953203     0.16300
H1034       H  0.43235802  0.77513199  0.06775995     0.16400
H1035       H  0.32925040  0.84365184  0.06474993     0.16300
C1036       C  0.36179202  0.75610048  0.21408603     0.30200
C1037       C  0.36057186  0.74932958  0.29677896     0.30200
C1038       C  0.39329729  0.75823392  0.23580895    -0.06000
C1039       C  0.34130285  0.77903565  0.23760108    -0.06800
C1040       C  0.34829237  0.72457567  0.22797816    -0.06700
C1041       C  0.39306217  0.75544405  0.27848095    -0.06000
C1042       C  0.34193138  0.77725972  0.28054218    -0.06800
C1043       C  0.34853810  0.72157909  0.27054127    -0.06700
C1044       C  0.42379512  0.75713497  0.29137988    -0.32000
N1045       N  0.44204294  0.75971368  0.25707204     0.14500
C1046       C  0.42363795  0.76041541  0.22290368    -0.32100
H1047       H  0.43176757  0.76145947  0.19095418     0.16400
C1048       C  0.32767048  0.80414206  0.29507710    -0.31000
N1049       N  0.31662866  0.82009213  0.26159883     0.13200
C1050       C  0.32392138  0.80406128  0.22665745    -0.31000
C1051       C  0.33556628  0.69339221  0.28018168    -0.31300
N1052       N  0.32594768  0.67904452  0.24483974     0.13700
H1053       H  0.33204824  0.68425179  0.31109077     0.16300
C1054       C  0.33334198  0.69792172  0.21222721    -0.31300
H1055       H  0.32704060  0.69332164  0.17993987     0.16300
H1056       H  0.31893889  0.81158860  0.19524981     0.16300
H1057       H  0.43243584  0.75559503  0.32306774     0.16400
H1058       H  0.32576822  0.81158207  0.32739241     0.16300
C1059       C  0.20273133  0.96556223  0.45724710     0.30200
C1060       C  0.20544963  0.02896449  0.04004750     0.30200
C1061       C  0.21376074  0.93374698  0.47398887    -0.06000
C1062       C  0.22342885  0.48825311  0.48187161    -0.06800
C1063       C  0.17032431  0.96847105  0.47576702    -0.06700
C1064       C  0.22825912  0.00544175  0.02081622    -0.06000
C1065       C  0.21844440  0.55771718  0.02254479    -0.06800
C1066       C  0.17439377  0.02291153  0.01888909    -0.06700
C1067       C  0.24799965  0.98222281  0.03418595    -0.32000
N1068       N  0.24090493  0.89252317  0.49366421     0.14500
C1069       C  0.23176188  0.90933341  0.46010792    -0.32100
H1070       H  0.23935310  0.90514786  0.42839915     0.16400
C1071       C  0.23785302  0.58159009  0.03563853    -0.31000
N1072       N  0.25511034  0.52524733  0.50682563     0.13200
C1073       C  0.24398963  0.51171481  0.47134537    -0.31000
C1074       C  0.14432857  0.01673934  0.03132599    -0.31300
N1075       N  0.12043756  0.47011609  0.49857894     0.13700
H1076       H  0.13599854  0.01526851  0.06312647     0.16300
C1077       C  0.13998723  0.97137477  0.46178398    -0.31300
H1078       H  0.13253655  0.97469076  0.42976866     0.16300
H1079       H  0.24929558  0.51947476  0.44014290     0.16300
H1080       H  0.25125889  0.97501061  0.06609580     0.16400
H1081       H  0.24453843  0.58678061  0.06757986     0.16300
C1082       C  0.20865114  0.00432389  0.20873132     0.30200
C1083       C  0.20934838  0.99805690  0.29040091     0.30200
C1084       C  0.22846652  0.97683940  0.22382643    -0.06000
C1085       C  0.21995866  0.53223667  0.23501528    -0.06800
C1086       C  0.17681945  0.00051600  0.22846749    -0.06700
C1087       C  0.22909827  0.97479993  0.26648982    -0.06000
C1088       C  0.22081253  0.52937535  0.27799995    -0.06800
C1089       C  0.17712178  0.99740447  0.27037813    -0.06700
C1090       C  0.24924511  0.95196980  0.27770275    -0.32000
N1091       N  0.25957658  0.93785975  0.24280554     0.14500
C1092       C  0.24787828  0.95338790  0.20927551    -0.32100
H1093       H  0.25266143  0.94768296  0.17696179     0.16400
C1094       C  0.24129036  0.55243685  0.29224026    -0.31000
N1095       N  0.25152759  0.56912068  0.25880809     0.13200
C1096       C  0.23960966  0.55586767  0.22395728    -0.31000
C1097       C  0.14654346  0.99581819  0.28355047    -0.31300
N1098       N  0.12666272  0.49544621  0.25242320     0.13700
H1099       H  0.13859722  0.99313853  0.31536823     0.16300
C1100       C  0.14612623  0.00111640  0.21556832    -0.31300
H1101       H  0.13780744  0.00335826  0.18382153     0.16300
H1102       H  0.24573227  0.56243258  0.19248605     0.16300
H1103       H  0.25449807  0.94472114  0.30926459     0.16400
H1104       H  0.24930736  0.55581889  0.32408041     0.16300
C1105       C  0.20579332  0.98930052  0.33327184    -0.05900
C1106       C  0.19982605  0.51189809  0.36377135    -0.17100
C1107       C  0.19371621  0.50412569  0.40399321     0.11300
C1108       C  0.20077425  0.97367057  0.41397780    -0.05900
C1109       C  0.19873968  0.95030069  0.38451343    -0.17100
C1110       C  0.19775023  0.95820268  0.34343319     0.11300
S1111       S  0.17941619  0.53422844  0.43853009    -0.32100
S1112       S  0.18437365  0.92897563  0.30605779    -0.32100
H1113       H  0.17267321  0.90787122  0.33527470     0.29300
H1114       H  0.16006722  0.54714538  0.40801134     0.29300
H1115       H  0.19851692  0.53579938  0.35457976     0.19900
H1116       H  0.19588690  0.92648748  0.39357313     0.19900
C1117       C  0.20106617  0.02448876  0.08406852    -0.05900
C1118       C  0.19630444  0.99361862  0.09589742    -0.17100
C1119       C  0.19784109  0.98597417  0.13691456     0.11300
C1120       C  0.20426241  0.01012074  0.16497390    -0.05900
C1121       C  0.19443982  0.53957711  0.15442488    -0.17100
C1122       C  0.19493572  0.54660969  0.11292314     0.11300
S1123       S  0.18766895  0.94712592  0.15227590    -0.32100
S1124       S  0.18050518  0.58358957  0.09620555    -0.32100
H1125       H  0.17137011  0.59465539  0.13573145     0.29300
H1126       H  0.18809484  0.93360732  0.11210175     0.29300
H1127       H  0.19238089  0.97557965  0.07273318     0.19900
H1128       H  0.18857985  0.55733619  0.17701939     0.19900
C1129       C  0.30692257  0.65129841  0.24578539    -0.05900
C1130       C  0.28125337  0.65066826  0.27280842    -0.17100
C1131       C  0.26328141  0.62389196  0.27834265     0.11300
C1132       C  0.27140259  0.59621315  0.25773189    -0.05900
C1133       C  0.29702487  0.59673235  0.23052230    -0.17100
C1134       C  0.31494592  0.62369628  0.22467538     0.11300
S1135       S  0.22899071  0.62701490  0.30975109    -0.32100
S1136       S  0.34807567  0.62113716  0.19092102    -0.32100
H1137       H  0.36628397  0.64290487  0.21296799     0.29300
H1138       H  0.21037401  0.60886086  0.28278104     0.29300
H1139       H  0.27484147  0.67162541  0.28932076     0.19900
H1140       H  0.30312204  0.57581415  0.21372388     0.19900
C1141       C  0.30169278  0.84981620  0.26011140    -0.05900
C1142       C  0.27444214  0.85250099  0.23642346    -0.17100
C1143       C  0.26100918  0.88131814  0.22866048     0.11300
C1144       C  0.27531512  0.90854125  0.24408121    -0.05900
C1145       C  0.30252166  0.90591561  0.26810920    -0.17100
C1146       C  0.31603864  0.87697412  0.27579020     0.11300
S1147       S  0.22448882  0.88292117  0.20147727    -0.32100
S1148       S  0.35223086  0.87501000  0.30378107    -0.32100
H1149       H  0.35781572  0.90701800  0.30615909     0.29300
H1150       H  0.22075485  0.85097771  0.19470978     0.29300
H1151       H  0.26374695  0.83167247  0.22392814     0.19900
H1152       H  0.31295039  0.92670463  0.28109674     0.19900
C1153       C  0.27163042  0.55453693  0.50873494    -0.05900
C1154       C  0.25866487  0.58037976  0.48936829    -0.17100
C1155       C  0.27333462  0.60945945  0.49071767     0.11300
C1156       C  0.30233660  0.61313092  0.51076994    -0.05900
C1157       C  0.30580223  0.66099537  0.02779833    -0.17100
C1158       C  0.29157521  0.63165945  0.02680499     0.11300
S1159       S  0.25337890  0.64140558  0.46763466    -0.32100
S1160       S  0.30988969  0.60149128  0.05589312    -0.32100
H1161       H  0.30145721  0.57756852  0.02792510     0.29300
H1162       H  0.26574251  0.66407243  0.49490578     0.29300
H1163       H  0.23647300  0.57796272  0.47379110     0.19900
H1164       H  0.32669442  0.66447079  0.04607605     0.19900
C1165       C  0.29161494  0.80760728  0.49396863    -0.05900
C1166       C  0.31742566  0.90441655  0.02853422    -0.17100
C1167       C  0.30235603  0.93322290  0.02963542     0.11300
C1168       C  0.25938628  0.86475927  0.49232196    -0.05900
C1169       C  0.24922274  0.83928080  0.46821073    -0.17100
C1170       C  0.26470074  0.81083502  0.46912679     0.11300
S1171       S  0.31504185  0.96074237  0.06885500    -0.32100
S1172       S  0.24786723  0.77903186  0.43999946    -0.32100
H1173       H  0.25692927  0.75611196  0.46819975     0.29300
H1174       H  0.31069846  0.98678790  0.04372064     0.29300
H1175       H  0.33506520  0.89985368  0.05171371     0.19900
H1176       H  0.22828540  0.84126269  0.44974848     0.19900
C1177       C  0.35244452  0.70531441  0.41197679    -0.05900
C1178       C  0.32572099  0.71656299  0.39365529    -0.17100
C1179       C  0.32828122  0.73529718  0.35907873     0.11300
C1180       C  0.35811011  0.73925251  0.34066301    -0.05900
C1181       C  0.38176109  0.71883524  0.35314613    -0.17100
C1182       C  0.37819092  0.70053527  0.38743703     0.11300
S1183       S  0.29262003  0.74967487  0.33700403    -0.32100
S1184       S  0.40452883  0.66918561  0.39606411    -0.32100
H1185       H  0.38672341  0.65490819  0.42713918     0.29300
H1186       H  0.27184059  0.73387036  0.36306221     0.29300
H1187       H  0.30401492  0.71488463  0.41029802     0.19900
H1188       H  0.40126876  0.71362215  0.33357513     0.19900
C1189       C  0.36631775  0.77427890  0.08678523    -0.05900
C1190       C  0.36816196  0.79930681  0.11399713    -0.17100
C1191       C  0.37119495  0.79379557  0.15607622     0.11300
C1192       C  0.36565435  0.76315351  0.16994262    -0.05900
C1193       C  0.37080864  0.73861762  0.14286523    -0.17100
C1194       C  0.37371552  0.74416011  0.10116044     0.11300
S1195       S  0.38577151  0.82475778  0.18963461    -0.32100
S1196       S  0.38814613  0.71294313  0.06826118    -0.32100
H1197       H  0.37913952  0.68858861  0.09442400     0.29300
H1198       H  0.38192669  0.84886142  0.16104604     0.29300
H1199       H  0.36977472  0.82252596  0.10223317     0.19900
H1200       H  0.37451833  0.71562398  0.15450226     0.19900
C1201       C  0.85947405  0.99197416  0.33786145    -0.05900
C1202       C  0.88364654  0.51616670  0.35037806    -0.17100
C1203       C  0.88030421  0.53709680  0.38224098     0.11300
C1204       C  0.85464046  0.03124341  0.40609254    -0.05900
C1205       C  0.82804748  0.01681953  0.39051191    -0.17100
C1206       C  0.83035839  0.99536713  0.35824464     0.11300
S1207       S  0.90677275  0.56948618  0.38626660    -0.32100
S1208       S  0.79489255  0.97659711  0.34087850    -0.32100
H1209       H  0.77464211  0.99012289  0.36994738     0.29300
H1210       H  0.88794753  0.58710108  0.41299646     0.29300
H1211       H  0.90325868  0.52060488  0.33061921     0.19900
H1212       H  0.80663138  0.01899033  0.40772246     0.19900
C1213       C  0.85712094  0.97900461  0.08101025    -0.05900
C1214       C  0.87973283  0.50030142  0.09993926    -0.17100
C1215       C  0.87809450  0.50839817  0.14133391     0.11300
C1216       C  0.85474188  0.99007026  0.16410942    -0.05900
C1217       C  0.82823223  0.97870026  0.14406895    -0.17100
C1218       C  0.82875748  0.97360250  0.10172614     0.11300
S1219       S  0.90263215  0.53901114  0.16231723    -0.32100
S1220       S  0.79237353  0.96519157  0.07548483    -0.32100
H1221       H  0.77573937  0.95610065  0.11107147     0.29300
H1222       H  0.91929457  0.54482217  0.12550224     0.29300
H1223       H  0.89724020  0.51111721  0.08090745     0.19900
H1224       H  0.80742150  0.97380354  0.16154209     0.19900
C1225       C  0.77259652  0.64514003  0.26394802    -0.05900
C1226       C  0.76029205  0.61788394  0.24628593    -0.17100
C1227       C  0.77783082  0.59118761  0.24256092     0.11300
C1228       C  0.80873317  0.59142715  0.25658013    -0.05900
C1229       C  0.82109730  0.61845290  0.27512199    -0.17100
C1230       C  0.80352197  0.64553773  0.27819972     0.11300
S1231       S  0.75927188  0.55737195  0.22031613    -0.32100
S1232       S  0.82214219  0.68005315  0.29814605    -0.32100
H1233       H  0.80563347  0.70064312  0.27297302     0.29300
H1234       H  0.77433480  0.53609098  0.24604938     0.29300
H1235       H  0.73658256  0.61754221  0.23518241     0.19900
H1236       H  0.84482957  0.61859720  0.28609227     0.19900
C1237       C  0.81176462  0.88230685  0.24324955    -0.05900
C1238       C  0.82751007  0.85755551  0.26125871    -0.17100
C1239       C  0.81623001  0.82711290  0.25710982     0.11300
C1240       C  0.78832601  0.82120436  0.23513380    -0.05900
C1241       C  0.77322494  0.84579546  0.21604115    -0.17100
C1242       C  0.78447562  0.87615335  0.21991809     0.11300
S1243       S  0.83829791  0.79665497  0.28039098    -0.32100
S1244       S  0.76223332  0.90718524  0.19802158    -0.32100
H1245       H  0.74061207  0.88859400  0.17619532     0.29300
H1246       H  0.82543982  0.77246540  0.25612686     0.29300
H1247       H  0.84880761  0.86199502  0.27830242     0.19900
H1248       H  0.75138934  0.84131823  0.20037271     0.19900
C1249       C  0.80432759  0.57295917  0.99248185    -0.05900
C1250       C  0.81157325  0.65889595  0.45966224    -0.17100
C1251       C  0.79786837  0.68841792  0.45863009     0.11300
C1252       C  0.76930672  0.62819249  0.99042726    -0.05900
C1253       C  0.76009326  0.60316296  0.01516108    -0.17100
C1254       C  0.77681700  0.57566224  0.01592853     0.11300
S1255       S  0.80891182  0.71350018  0.41662267    -0.32100
S1256       S  0.76058462  0.54422125  0.04522125    -0.32100
H1257       H  0.76936345  0.52127638  0.01625764     0.29300
H1258       H  0.80761553  0.74077509  0.44081754     0.29300
H1259       H  0.82699896  0.65226492  0.43462350     0.19900
H1260       H  0.73900100  0.60481090  0.03317600     0.19900
C1261       C  0.81012834  0.87097380  0.99477976    -0.05900
C1262       C  0.78472542  0.86722943  0.02166549    -0.17100
C1263       C  0.76814294  0.83929843  0.02356914     0.11300
C1264       C  0.77774397  0.81357577  0.99945665    -0.03500
C1265       C  0.79243688  0.88100462  0.47849397    -0.17100
C1266       C  0.81276976  0.90652779  0.47981413     0.11300
S1267       S  0.73344478  0.83886702  0.05456291    -0.32100
S1268       S  0.84951672  0.90272271  0.45406947    -0.32100
H1269       H  0.86563834  0.92308295  0.48108478     0.29300
H1270       H  0.71609848  0.82116281  0.02555659     0.29300
H1271       H  0.77699378  0.88673800  0.04020402     0.19900
H1272       H  0.79912666  0.86021547  0.46182197     0.19900
C1273       C  0.71033553  0.75378105  0.33673495    -0.05900
C1274       C  0.70911645  0.78639001  0.34233821    -0.17100
C1275       C  0.70064508  0.79923904  0.37967899     0.11300
C1276       C  0.69511054  0.77891274  0.41166202    -0.05900
C1277       C  0.68776062  0.74775641  0.40315011    -0.17100
C1278       C  0.69571902  0.73461091  0.36598854     0.11300
S1279       S  0.69048457  0.83945616  0.38154888    -0.32100
S1280       S  0.68501793  0.69450530  0.35703972    -0.32100
H1281       H  0.66614428  0.69065014  0.39236793     0.29300
H1282       H  0.67033346  0.83650149  0.41575326     0.29300
H1283       H  0.71174981  0.80206106  0.31641754     0.19900
H1284       H  0.67978051  0.73272936  0.42784333     0.19900
C1285       C  0.70612470  0.72174603  0.08408930    -0.05900
C1286       C  0.70256224  0.75143167  0.10107951    -0.17100
C1287       C  0.70141417  0.75571573  0.14310454     0.11300
C1288       C  0.70538584  0.72947438  0.16788713    -0.05900
C1289       C  0.70015797  0.69990914  0.15108952    -0.17100
C1290       C  0.69938718  0.69576379  0.10851972     0.11300
S1291       S  0.69366689  0.79418301  0.16363400    -0.32100
S1292       S  0.68446773  0.65957210  0.08759352    -0.32100
H1293       H  0.68869421  0.64212837  0.12396920     0.29300
H1294       H  0.68931109  0.80906398  0.12526247     0.29300
H1295       H  0.70022436  0.77127407  0.08114080     0.19900
H1296       H  0.69523753  0.68053091  0.17102055     0.19900
C1297       C  0.70625022  0.72479352  0.95681359     0.30200
C1298       C  0.70547839  0.78408879  0.53737055     0.30200
C1299       C  0.67544557  0.72948402  0.97883406    -0.06000
C1300       C  0.71719166  0.69277194  0.97255986    -0.06800
C1301       C  0.72963567  0.74678274  0.97785556    -0.06700
C1302       C  0.67321000  0.77772377  0.52007257    -0.06000
C1303       C  0.72827500  0.76309494  0.51461012    -0.06800
C1304       C  0.71359305  0.81606383  0.51910668    -0.06700
C1305       C  0.64381584  0.77241740  0.53589439    -0.32000
N1306       N  0.62803355  0.73705166  0.00302893     0.14500
C1307       C  0.64507390  0.73508041  0.96764585    -0.32100
H1308       H  0.63613806  0.73778210  0.93635040     0.16400
C1309       C  0.75090647  0.74223157  0.52541683    -0.31000
N1310       N  0.76041956  0.72678259  0.49059286     0.13200
C1311       C  0.73785702  0.67064543  0.95787135    -0.31000
C1312       C  0.73356518  0.83934433  0.53211502    -0.31300
N1313       N  0.74383135  0.85480576  0.49825742     0.13700
H1314       H  0.74182941  0.84344156  0.56366339     0.16300
C1315       C  0.74956835  0.77007153  0.96549432    -0.31300
H1316       H  0.75355573  0.77766403  0.93385734     0.16300
H1317       H  0.74415134  0.66656930  0.92559383     0.16300
H1318       H  0.63750935  0.77018830  0.56847745     0.16400
H1319       H  0.75821072  0.73717744  0.55689768     0.16300
C1320       C  0.70900929  0.76047387  0.70680724     0.30200
C1321       C  0.71235182  0.75387229  0.78835700     0.30200
C1322       C  0.67787905  0.75808756  0.72838680    -0.06000
C1323       C  0.72733590  0.73179596  0.72044262    -0.06800
C1324       C  0.72669520  0.78609507  0.72968379    -0.06700
C1325       C  0.67944754  0.75490403  0.77032309    -0.06000
C1326       C  0.72948604  0.72945040  0.76303775    -0.06800
C1327       C  0.72832171  0.78399980  0.77258309    -0.06700
C1328       C  0.64926130  0.75356527  0.78500985    -0.32000
N1329       N  0.62963949  0.75613326  0.75200813     0.14500
C1330       C  0.64696523  0.75880173  0.71699472    -0.32100
H1331       H  0.63779981  0.76096945  0.68564502     0.16400
C1332       C  0.75235063  0.70891454  0.77236025    -0.31000
N1333       N  0.76332515  0.69698740  0.73633312     0.13200
C1334       C  0.74869959  0.71112798  0.70401706    -0.31000
C1335       C  0.74975596  0.80682838  0.78504254    -0.31300
N1336       N  0.76061729  0.82154846  0.75014058     0.13700
H1337       H  0.75703548  0.81200113  0.81677158     0.16300
C1338       C  0.74763627  0.80754420  0.71655370    -0.31300
H1339       H  0.75287907  0.81295207  0.68440186     0.16300
H1340       H  0.75391388  0.70722457  0.67136707     0.16300
H1341       H  0.64215279  0.75086524  0.81718756     0.16400
H1342       H  0.75996703  0.70247844  0.80338661     0.16300
C1343       C  0.86279865  0.97389519  0.95316760     0.30200
C1344       C  0.85825021  0.03774372  0.53471200     0.30200
C1345       C  0.89419211  0.97115669  0.97510908    -0.06000
C1346       C  0.84848563  0.50299264  0.97417708    -0.06800
C1347       C  0.84504901  0.94597155  0.97184664    -0.06700
C1348       C  0.89105303  0.03681593  0.51509777    -0.06000
C1349       C  0.84419835  0.56491102  0.51488411    -0.06800
C1350       C  0.84351906  0.00764246  0.51725881    -0.06700
C1351       C  0.92010639  0.52425894  0.52886548    -0.32000
N1352       N  0.93668513  0.51508262  0.49543424     0.14500
C1353       C  0.92451931  0.46480341  0.96525591    -0.32100
H1354       H  0.93349970  0.46411054  0.93369917     0.16400
C1355       C  0.83266078  0.59314053  0.52725890    -0.31000
N1356       N  0.82176531  0.60830401  0.49322359     0.13200
C1357       C  0.83318059  0.52910812  0.96028376    -0.31000
C1358       C  0.83101091  0.98030464  0.53255708    -0.31300
N1359       N  0.82268581  0.96177337  0.49986810     0.13700
H1360       H  0.82787194  0.97429046  0.56499400     0.16300
C1361       C  0.83318019  0.91749510  0.95899493    -0.31300
H1362       H  0.83068919  0.90937505  0.92705494     0.16300
H1363       H  0.82862411  0.53513584  0.92811861     0.16300
H1364       H  0.92698880  0.51989361  0.56074557     0.16400
H1365       H  0.83341107  0.60223056  0.55883752     0.16300
C1366       C  0.85941753  0.01241348  0.70394007     0.30200
C1367       C  0.85532838  0.00653809  0.78623420     0.30200
C1368       C  0.88981340  0.00373433  0.72502749    -0.06000
C1369       C  0.85102020  0.54124974  0.72746257    -0.06800
C1370       C  0.83755554  0.98588047  0.71786696    -0.06700
C1371       C  0.88809359  0.00103016  0.76787790    -0.06000
C1372       C  0.84839300  0.54007248  0.76981151    -0.06800
C1373       C  0.83598868  0.98296741  0.76101601    -0.06700
C1374       C  0.92093648  0.49724696  0.78536543    -0.32000
N1375       N  0.93959152  0.49324958  0.75176943     0.14500
C1376       C  0.92301259  0.49740097  0.71656538    -0.32100
H1377       H  0.93204446  0.49568228  0.68513399     0.16400
C1378       C  0.83453882  0.56728809  0.78280068    -0.31000
N1379       N  0.82855560  0.58437621  0.74832032     0.13200
C1380       C  0.83880810  0.56874352  0.71444435    -0.31000
C1381       C  0.82960687  0.95237171  0.76909894    -0.31300
N1382       N  0.82433897  0.93689380  0.73312980     0.13700
H1383       H  0.82975462  0.94154931  0.79935637     0.16300
C1384       C  0.83093179  0.95656611  0.70136935    -0.31300
H1385       H  0.83231999  0.94981344  0.66877961     0.16300
H1386       H  0.83630757  0.57635953  0.68253746     0.16300
H1387       H  0.92837639  0.49496611  0.81749495     0.16400
H1388       H  0.82786399  0.57340433  0.81436328     0.16300
O1389       O  0.57601863  0.72154952  0.00568587    -0.72800
O1390       O  0.48479704  0.74112890  0.00411540    -0.73700
O1391       O  0.53105825  0.73020862  0.93178943    -0.62400
O1392       O  0.53583921  0.72561269  0.57727071    -0.70800
O1393       O  0.52609734  0.77443956  0.57867786    -0.70300
O1394       O  0.54092240  0.77926397  0.93094755    -0.61600
O1395       O  0.49554380  0.79115351  0.00373785    -0.74100
O1396       O  0.57191155  0.78575584  0.50638953    -0.72900
Cu1397     Cu  0.53022539  0.72988924  0.00516879     1.04600
Cu1398     Cu  0.52597802  0.77703933  0.50486891     1.04300
C1399       C  0.59569672  0.74364389  0.00486283     0.93400
C1400       C  0.47578635  0.76912391  0.00308888     0.92600
C1401       C  0.53607476  0.75424537  0.90747834     0.84700
C1402       C  0.53139676  0.74995277  0.60208213     0.91000
O1403       O  0.53537542  0.77755171  0.82842124    -0.72800
O1404       O  0.53128961  0.77514817  0.68130145    -0.73700
O1405       O  0.48679552  0.77351178  0.75805926    -0.62400
O1406       O  0.58050738  0.77927461  0.75263445    -0.70800
O1407       O  0.58283569  0.72834421  0.75484300    -0.70300
O1408       O  0.48963013  0.72254742  0.75721200    -0.61600
O1409       O  0.53493924  0.72543996  0.68134190    -0.74100
O1410       O  0.53663683  0.72764174  0.82933342    -0.72900
Cu1411     Cu  0.53345117  0.77789713  0.75504627     1.04600
Cu1412     Cu  0.53616009  0.72444645  0.75565031     1.04300
C1413       C  0.53607963  0.75307486  0.85277430     0.93400
C1414       C  0.53254103  0.75009039  0.65721600     0.92600
C1415       C  0.47355830  0.74704568  0.75888592     0.84700
C1416       C  0.59642717  0.75456533  0.75335457     0.91000
O1417       O  0.08571143  0.97599002  0.99619795    -0.72800
O1418       O  0.99445603  0.95356284  0.99783646    -0.73700
O1419       O  0.03855450  0.96530473  0.92359706    -0.62400
O1420       O  0.02266497  0.96618189  0.57072098    -0.70800
O1421       O  0.03493417  0.51472442  0.57369896    -0.70300
O1422       O  0.02874826  0.51240157  0.92741617    -0.61600
O1423       O  0.98961609  0.52675884  0.49890363    -0.74100
O1424       O  0.07968223  0.50499442  0.49932936    -0.72900
Cu1425     Cu  0.04022492  0.96338434  0.99704022     1.04600
Cu1426     Cu  0.03500674  0.51666500  0.49961912     1.04300
C1427       C  0.09408569  0.50324041  0.00148976     0.93400
C1428       C  0.96866961  0.50590190  0.49695893     0.92600
C1429       C  0.03411468  0.48813025  0.90297839     0.84700
C1430       C  0.02941425  0.49029575  0.59735349     0.91000
O1431       O  0.98349993  0.96461628  0.74895280    -0.72800
O1432       O  0.07703507  0.96422316  0.74649428    -0.73700
O1433       O  0.03179225  0.96484720  0.82118684    -0.62400
O1434       O  0.02887572  0.96516570  0.67367234    -0.70800
O1435       O  0.03337728  0.51441508  0.67722810    -0.70300
O1436       O  0.03448110  0.51338427  0.82480092    -0.61600
O1437       O  0.08063903  0.51248862  0.75120049    -0.74100
O1438       O  0.98831557  0.51623770  0.75197364    -0.72900
Cu1439     Cu  0.03027594  0.96313187  0.74752107     1.04600
Cu1440     Cu  0.03434741  0.51563660  0.75126749     1.04300
C1441       C  0.97236663  0.49139275  0.75246040     0.93400
C1442       C  0.09412186  0.48646903  0.74974027     0.92600
C1443       C  0.03393982  0.48829782  0.84810731     0.84700
C1444       C  0.03080817  0.48977072  0.65240426     0.91000
C1445       C  0.36214950  0.77726814  0.95925781     0.30200
C1446       C  0.35889215  0.71695286  0.54007320     0.30200
C1447       C  0.39444255  0.77704346  0.97931149    -0.06000
C1448       C  0.34887900  0.80771185  0.97804434    -0.06800
C1449       C  0.34257280  0.75231407  0.98083028    -0.06700
C1450       C  0.39004413  0.71957096  0.51792037    -0.06000
C1451       C  0.33801726  0.74045567  0.51813694    -0.06800
C1452       C  0.34497505  0.68582545  0.52482870    -0.06700
C1453       C  0.41975492  0.72716231  0.53073885    -0.32000
N1454       N  0.43792128  0.72983480  0.49680533     0.14500
C1455       C  0.42528013  0.77703685  0.96708242    -0.32100
H1456       H  0.43381539  0.77634251  0.93536532     0.16400
C1457       C  0.31959655  0.76518433  0.52974132    -0.31000
N1458       N  0.32695589  0.85227100  0.99810871     0.13200
C1459       C  0.33664189  0.83526547  0.96442992    -0.31000
C1460       C  0.32926257  0.66029910  0.54067877    -0.31300
N1461       N  0.31979743  0.64178886  0.50822783     0.13700
H1462       H  0.32407215  0.65607665  0.57319433     0.16300
C1463       C  0.32371407  0.72763110  0.96855485    -0.31300
H1464       H  0.31982409  0.71939662  0.93690392     0.16300
H1465       H  0.33509743  0.84235601  0.93219831     0.16300
H1466       H  0.42748731  0.73118842  0.56258656     0.16400
H1467       H  0.31469191  0.77296187  0.56128953     0.16300
C1468       C  0.36291354  0.74650320  0.70862136     0.30200
C1469       C  0.35640323  0.74720581  0.79119018     0.30200
C1470       C  0.39286520  0.74349530  0.73323921    -0.06000
C1471       C  0.34810306  0.77640884  0.72600364    -0.06800
C1472       C  0.34147465  0.72124305  0.72607672    -0.06700
C1473       C  0.39028382  0.74426009  0.77579908    -0.06000
C1474       C  0.34622018  0.77702265  0.76910099    -0.06800
C1475       C  0.33864779  0.72117638  0.76859482    -0.06700
C1476       C  0.42057513  0.74575211  0.79118548    -0.32000
N1477       N  0.44047813  0.74476863  0.75828277     0.14500
C1478       C  0.42369294  0.74347179  0.72279230    -0.32100
H1479       H  0.43325975  0.74400455  0.69156969     0.16400
C1480       C  0.33427128  0.80520564  0.78079857    -0.31000
N1481       N  0.32579901  0.82079041  0.74623162     0.13200
C1482       C  0.33351758  0.80305111  0.71236292    -0.31000
C1483       C  0.32111944  0.69538792  0.77887532    -0.31300
N1484       N  0.31343625  0.67982820  0.74301136     0.13700
H1485       H  0.31535652  0.68793733  0.81008595     0.16300
C1486       C  0.32503660  0.69604200  0.71052318    -0.31300
H1487       H  0.32238303  0.68938770  0.67798727     0.16300
H1488       H  0.32765422  0.80840400  0.68038644     0.16300
H1489       H  0.42768308  0.74858419  0.82347150     0.16400
H1490       H  0.33108241  0.81373877  0.81231274     0.16300
C1491       C  0.20698998  0.02863453  0.95770730     0.30200
C1492       C  0.20028997  0.96143544  0.53898651     0.30200
C1493       C  0.22923945  0.00554865  0.97840603    -0.06000
C1494       C  0.21763392  0.55827662  0.97907244    -0.06800
C1495       C  0.17506222  0.02245362  0.97676098    -0.06700
C1496       C  0.21243320  0.93167718  0.51763199    -0.06000
C1497       C  0.22272304  0.48665504  0.52402721    -0.06800
C1498       C  0.16922196  0.96557834  0.51753402    -0.06700
C1499       C  0.22973062  0.90635833  0.52883667    -0.32000
N1500       N  0.26118983  0.96833323  0.00030913     0.14500
C1501       C  0.25000543  0.98295246  0.96603731    -0.32100
H1502       H  0.25579676  0.97688976  0.93411981     0.16400
C1503       C  0.24269975  0.50962497  0.53949236    -0.31000
N1504       N  0.24787499  0.59738098  0.00169602     0.13200
C1505       C  0.23673464  0.58247804  0.96705392    -0.31000
C1506       C  0.13850216  0.96593539  0.52964146    -0.31300
N1507       N  0.12637196  0.51137575  0.00150101     0.13700
H1508       H  0.12981755  0.96454855  0.56125146     0.16300
C1509       C  0.14520438  0.01567322  0.96289348    -0.31300
H1510       H  0.13762021  0.01328280  0.93073254     0.16300
H1511       H  0.24319347  0.58815643  0.93539822     0.16300
H1512       H  0.23520970  0.89925845  0.56034332     0.16400
H1513       H  0.24656720  0.51562033  0.57204254     0.16300
C1514       C  0.20523428  0.98994593  0.70649523     0.30200
C1515       C  0.20651871  0.00114544  0.78751379     0.30200
C1516       C  0.22609382  0.96858245  0.73105203    -0.06000
C1517       C  0.22086257  0.52085622  0.72169337    -0.06800
C1518       C  0.17385724  0.98889678  0.72775153    -0.06700
C1519       C  0.22672737  0.97343929  0.77343555    -0.06000
C1520       C  0.22101745  0.52585832  0.76417446    -0.06800
C1521       C  0.17429868  0.99506250  0.76927562    -0.06700
C1522       C  0.24720279  0.95164509  0.78920646    -0.32000
N1523       N  0.25818309  0.93406897  0.75675114     0.14500
C1524       C  0.24641653  0.94556103  0.72110579    -0.32100
H1525       H  0.25123523  0.93671110  0.69004310     0.16400
C1526       C  0.23802669  0.55223590  0.77232969    -0.31000
N1527       N  0.24619531  0.56528805  0.73581717     0.13200
C1528       C  0.23696635  0.54571571  0.70429691    -0.31000
C1529       C  0.14379667  0.99591342  0.78253699    -0.31300
N1530       N  0.12717110  0.48552092  0.75060724     0.13700
H1531       H  0.13575841  0.00125984  0.81375301     0.16300
C1532       C  0.14337208  0.98534371  0.71531929    -0.31300
H1533       H  0.13498314  0.98111584  0.68382017     0.16300
H1534       H  0.24198017  0.54907787  0.67152728     0.16300
H1535       H  0.25346925  0.94874883  0.82166862     0.16400
H1536       H  0.24441557  0.56140321  0.80283029     0.16300
C1537       C  0.20364664  0.00812318  0.83145764    -0.05900
C1538       C  0.19666483  0.53758781  0.84500701    -0.17100
C1539       C  0.19559191  0.54625780  0.88611598     0.11300
C1540       C  0.20408539  0.02372148  0.91316740    -0.05900
C1541       C  0.19968738  0.99259458  0.90110669    -0.17100
C1542       C  0.19857667  0.98447040  0.85998923     0.11300
S1543       S  0.18326896  0.58497920  0.89838161    -0.32100
S1544       S  0.18656767  0.94562357  0.84527517    -0.32100
H1545       H  0.18567127  0.93318881  0.88567439     0.29300
H1546       H  0.16724060  0.57709792  0.93491489     0.29300
H1547       H  0.19154132  0.55479140  0.82180373     0.19900
H1548       H  0.19661122  0.97473389  0.92418952     0.19900
C1549       C  0.19503610  0.96668361  0.58258213    -0.05900
C1550       C  0.19585567  0.94242313  0.61009555    -0.17100
C1551       C  0.19559139  0.94930004  0.65192849     0.11300
C1552       C  0.20075823  0.98073026  0.66375217    -0.05900
C1553       C  0.19482408  0.50329134  0.64028028    -0.17100
C1554       C  0.18847222  0.49676213  0.59971101     0.11300
S1555       S  0.18484960  0.91894400  0.68795727    -0.32100
S1556       S  0.17383307  0.52797262  0.56766373    -0.32100
H1557       H  0.16395809  0.54727391  0.60057362     0.29300
H1558       H  0.18662838  0.89411562  0.65937890     0.29300
H1559       H  0.19497539  0.91878393  0.59903586     0.19900
H1560       H  0.19163410  0.52655681  0.65186855     0.19900
C1561       C  0.29658389  0.65086614  0.73977901    -0.05900
C1562       C  0.26775596  0.64813178  0.75923663    -0.17100
C1563       C  0.25002037  0.62095588  0.75579254     0.11300
C1564       C  0.26144132  0.59509808  0.73326372    -0.05900
C1565       C  0.29008067  0.59791887  0.71311541    -0.17100
C1566       C  0.30782829  0.62529001  0.71642683     0.11300
S1567       S  0.21250765  0.62093188  0.78020780    -0.32100
S1568       S  0.34554370  0.62534534  0.69267999    -0.32100
H1569       H  0.35969588  0.64407060  0.72358602     0.29300
H1570       H  0.19873383  0.60003062  0.75161726     0.29300
H1571       H  0.25871345  0.66766638  0.77658240     0.19900
H1572       H  0.29936545  0.57814527  0.69655633     0.19900
C1573       C  0.30870164  0.84946757  0.74763605    -0.05900
C1574       C  0.28523886  0.85308954  0.77772472    -0.17100
C1575       C  0.26902504  0.88090775  0.78253195     0.11300
C1576       C  0.27671546  0.90636908  0.75731109    -0.05900
C1577       C  0.30006057  0.90271430  0.72708755    -0.17100
C1578       C  0.31596031  0.87472920  0.72181391     0.11300
S1579       S  0.23712548  0.88265749  0.81865321    -0.32100
S1580       S  0.34618353  0.87220341  0.68324735    -0.32100
H1581       H  0.34162054  0.90131166  0.66531416     0.29300
H1582       H  0.23978134  0.85257518  0.83425521     0.29300
H1583       H  0.27922654  0.83363122  0.79708349     0.19900
H1584       H  0.30561133  0.92204158  0.70724744     0.19900
C1585       C  0.26474143  0.62649702  0.00207393    -0.05900
C1586       C  0.25318294  0.65123054  0.97873258    -0.17100
C1587       C  0.26735988  0.68056608  0.97989300     0.11300
C1588       C  0.29437348  0.68553792  0.00409412    -0.05900
C1589       C  0.31520456  0.58743442  0.53070265    -0.17100
C1590       C  0.30027960  0.55830064  0.52976603     0.11300
S1591       S  0.24903947  0.71113981  0.95152997    -0.32100
S1592       S  0.31949539  0.52652470  0.55429762    -0.32100
H1593       H  0.30745810  0.50347170  0.52739753     0.29300
H1594       H  0.25920848  0.73516978  0.97827634     0.29300
H1595       H  0.23229258  0.64785498  0.96042159     0.19900
H1596       H  0.33754664  0.58988175  0.54586658     0.19900
C1597       C  0.31086307  0.88182856  0.99751941    -0.05900
C1598       C  0.30188202  0.83318668  0.51784484    -0.17100
C1599       C  0.28648736  0.86162640  0.51678118     0.11300
C1600       C  0.27923933  0.93999529  0.99956385    -0.05900
C1601       C  0.27301211  0.91760507  0.96838155    -0.17100
C1602       C  0.28807930  0.88898151  0.96708310     0.11300
S1603       S  0.30350563  0.89354716  0.54547592    -0.32100
S1604       S  0.27515340  0.86218187  0.92713262    -0.32100
H1605       H  0.27509680  0.83647409  0.95358020     0.29300
H1606       H  0.29365721  0.91633560  0.51754026     0.29300
H1607       H  0.32268010  0.83120527  0.53656987     0.19900
H1608       H  0.25514978  0.92194964  0.94542932     0.19900
C1609       C  0.36130355  0.76894445  0.91484634    -0.05900
C1610       C  0.33439743  0.77723474  0.89312606    -0.17100
C1611       C  0.32767065  0.76308561  0.85531312     0.11300
C1612       C  0.35133985  0.74638825  0.83628493    -0.05900
C1613       C  0.37322908  0.73213590  0.86060527    -0.17100
C1614       C  0.37764915  0.74202226  0.90094932     0.11300
S1615       S  0.28907781  0.76381038  0.83337683    -0.32100
S1616       S  0.39892518  0.71595063  0.93453657    -0.32100
H1617       H  0.41094920  0.69639831  0.90333105     0.29300
H1618       H  0.27536150  0.77987724  0.86685490     0.29300
H1619       H  0.31721540  0.79181008  0.90761123     0.19900
H1620       H  0.38690857  0.71359499  0.84756959     0.19900
C1621       C  0.36406013  0.72397617  0.58418285    -0.05900
C1622       C  0.36883146  0.75550909  0.59449889    -0.17100
C1623       C  0.37240890  0.76461059  0.63522903     0.11300
C1624       C  0.37019542  0.74140420  0.66475072    -0.05900
C1625       C  0.37793391  0.71102129  0.65310734    -0.17100
C1626       C  0.37524981  0.70191563  0.61209187     0.11300
S1627       S  0.38645463  0.80329739  0.64545350    -0.32100
S1628       S  0.38922163  0.66431235  0.59643716    -0.32100
H1629       H  0.40381045  0.65717075  0.63445429     0.29300
H1630       H  0.40020280  0.79698349  0.68419409     0.29300
H1631       H  0.37105780  0.77293800  0.57065217     0.19900
H1632       H  0.38368785  0.69409118  0.67651334     0.19900
C1633       C  0.85238404  0.00471854  0.83157366    -0.05900
C1634       C  0.87943671  0.51881910  0.85794604    -0.17100
C1635       C  0.88445243  0.50615607  0.89646918     0.11300
C1636       C  0.86369087  0.98011925  0.90839018    -0.05900
C1637       C  0.83621086  0.97262240  0.88696963    -0.17100
C1638       C  0.82884567  0.98781051  0.85101073     0.11300
S1639       S  0.91176479  0.52729492  0.92971948    -0.32100
S1640       S  0.78875911  0.98797179  0.83464695    -0.32100
H1641       H  0.79162355  0.01377502  0.80867207     0.29300
H1642       H  0.91638899  0.55323636  0.90435946     0.29300
H1643       H  0.89544316  0.53572402  0.84549868     0.19900
H1644       H  0.81819389  0.95893346  0.90123340     0.19900
C1645       C  0.85532153  0.04112573  0.58001688    -0.05900
C1646       C  0.88430527  0.54974672  0.60421540    -0.17100
C1647       C  0.88734392  0.54042273  0.64489880     0.11300
C1648       C  0.86011059  0.02088603  0.65982746    -0.05900
C1649       C  0.83167429  0.01830369  0.63873720    -0.17100
C1650       C  0.82825201  0.03117433  0.60004697     0.11300
S1651       S  0.91655344  0.56043253  0.67593638    -0.32100
S1652       S  0.79030315  0.03270914  0.57598944    -0.32100
H1653       H  0.77330296  0.02496676  0.61185203     0.29300
H1654       H  0.93695695  0.56642147  0.64273837     0.29300
H1655       H  0.90188465  0.56415624  0.59008488     0.19900
H1656       H  0.81167083  0.00795242  0.65334180     0.19900
C1657       C  0.78235230  0.66999318  0.73474352    -0.05900
C1658       C  0.76978205  0.64288682  0.71720305    -0.17100
C1659       C  0.78380299  0.61432289  0.72326173     0.11300
C1660       C  0.81170552  0.61270285  0.74616545    -0.05900
C1661       C  0.82468899  0.63980514  0.76313587    -0.17100
C1662       C  0.81030867  0.66838004  0.75778632     0.11300
S1663       S  0.76416110  0.58041228  0.70309033    -0.32100
S1664       S  0.82869500  0.70196693  0.78098051    -0.32100
H1665       H  0.81490985  0.72360867  0.75449989     0.29300
H1666       H  0.77481292  0.56037620  0.73418891     0.29300
H1667       H  0.74777278  0.64378256  0.70096542     0.19900
H1668       H  0.84640055  0.63867887  0.78002522     0.19900
C1669       C  0.81137809  0.90598963  0.73196825    -0.05900
C1670       C  0.82245733  0.88373237  0.76018696    -0.17100
C1671       C  0.80655038  0.85573458  0.76697131     0.11300
C1672       C  0.77835600  0.84988217  0.74594118    -0.05900
C1673       C  0.76781992  0.87184825  0.71708348    -0.17100
C1674       C  0.78384839  0.89950796  0.70978055     0.11300
S1675       S  0.82355593  0.82844591  0.80206838    -0.32100
S1676       S  0.76717822  0.92749889  0.67505404    -0.32100
H1677       H  0.74225920  0.90915565  0.66062904     0.29300
H1678       H  0.81362807  0.80213953  0.77942634     0.29300
H1679       H  0.84349759  0.88852419  0.77763540     0.19900
H1680       H  0.74618267  0.86755720  0.70088236     0.19900
C1681       C  0.80669268  0.63840436  0.49311399    -0.05900
C1682       C  0.81358354  0.59791664  0.96749057    -0.17100
C1683       C  0.79661981  0.62551031  0.96654874     0.11300
C1684       C  0.77762752  0.69789576  0.49105963    -0.05900
C1685       C  0.77324118  0.67759956  0.52460727    -0.17100
C1686       C  0.78706228  0.64846534  0.52604792     0.11300
S1687       S  0.81189974  0.65689234  0.93626435    -0.32100
S1688       S  0.77630315  0.62491727  0.56985111    -0.32100
H1689       H  0.77220678  0.59794635  0.54554397     0.29300
H1690       H  0.80109987  0.68043568  0.96292835     0.29300
H1691       H  0.83467581  0.59616013  0.94952133     0.19900
H1692       H  0.75762238  0.68389307  0.54958281     0.19900
C1693       C  0.80439296  0.93370909  0.50180532    -0.05900
C1694       C  0.77593631  0.93421817  0.52276286    -0.17100
C1695       C  0.75552841  0.90885095  0.52116077     0.11300
C1696       C  0.76390369  0.88165770  0.49924001    -0.03500
C1697       C  0.80292711  0.81734188  0.97222243    -0.17100
C1698       C  0.81932238  0.84545814  0.96992334     0.11300
S1699       S  0.71823210  0.91328401  0.54532245    -0.32100
S1700       S  0.85261671  0.84669099  0.93635311    -0.32100
H1701       H  0.87014281  0.86627865  0.96280571     0.29300
H1702       H  0.70203062  0.89472444  0.51611279     0.29300
H1703       H  0.76895381  0.95516171  0.53885148     0.19900
H1704       H  0.81020435  0.79795053  0.95312937     0.19900
C1705       C  0.70987812  0.74553947  0.83171049    -0.05900
C1706       C  0.70561958  0.76961053  0.85987658    -0.17100
C1707       C  0.69837365  0.76285037  0.90028522     0.11300
C1708       C  0.70235401  0.73183394  0.91310746    -0.05900
C1709       C  0.70105543  0.70784409  0.88446376    -0.17100
C1710       C  0.70168781  0.71466050  0.84293588     0.11300
S1711       S  0.68533301  0.79398614  0.93425982    -0.32100
S1712       S  0.68841344  0.68474998  0.80646668    -0.32100
H1713       H  0.68681866  0.66019584  0.83477660     0.29300
H1714       H  0.67969014  0.81555922  0.90264810     0.29300
H1715       H  0.70595228  0.79336094  0.84972163     0.19900
H1716       H  0.69763357  0.68433858  0.89452629     0.19900
C1717       C  0.70422170  0.77779651  0.58121224    -0.05900
C1718       C  0.69874340  0.80234807  0.60825085    -0.17100
C1719       C  0.69590407  0.79656992  0.64987008     0.11300
C1720       C  0.70418209  0.76672968  0.66343463    -0.05900
C1721       C  0.70257050  0.74162950  0.63648648    -0.17100
C1722       C  0.70045039  0.74673409  0.59480703     0.11300
S1723       S  0.68082003  0.82668337  0.68388790    -0.32100
S1724       S  0.69078420  0.71384094  0.56100630    -0.32100
H1725       H  0.69037454  0.69084593  0.59169073     0.29300
H1726       H  0.67335452  0.84787822  0.65251674     0.29300
H1727       H  0.69489570  0.82535644  0.59671008     0.19900
H1728       H  0.70180246  0.71831357  0.64818335     0.19900
loop_ 
_geom_bond_atom_site_label_1 
_geom_bond_atom_site_label_2 
_geom_bond_distance 
_geom_bond_site_symmetry_2 
_ccdc_geom_bond_type 
C1            C3   1.527       .  S
C1            C5   1.559       .  S
C1            C4   1.552       .  S
C1          C412   1.451       .  S
C2            C6   1.524       .  S
C2            C8   1.554       .  S
C2            C7   1.537       .  S
C2          C421   1.440       .  S
C3           C11   1.386       .  A
C3          C438   1.347       .  A
C4           C15   1.397       .  A
C4          C439   1.354       .  A
C5           C19   1.395       .  A
C5          C440   1.406       .  A
C6            C9   1.385       .  A
C6          C435   1.350   1_554  A
C7           C13   1.378       .  A
C7          C436   1.397   1_554  A
C8           C16   1.398       .  A
C8          C437   1.358   1_554  A
C9           H22   1.084       .  S
C9          N442   1.352       .  A
N10          C11   1.353       .  A
N10         C441   1.355       .  A
N10         C103   1.433       .  S
C11          H12   1.083       .  S
C13          H23   1.081       .  S
C13          N14   1.354   1_554  A
N14         C447   1.362       .  A
N14         C388   1.447       .  S
C15          H21   1.081       .  S
C15         N446   1.362       .  A
C16          H18   1.081       .  S
C16          N17   1.365       .  A
N17         C451   1.351   1_554  A
N17         C400   1.450       .  S
C19          H20   1.080       .  S
C19         N449   1.361       .  A
C24          C26   1.517       .  S
C24          C28   1.549       .  S
C24          C27   1.538       .  S
C24         C424   1.438       .  S
C25          C29   1.541       .  S
C25          C31   1.537       .  S
C25          C30   1.554       .  S
C25         C409   1.451       .  S
C26          C34   1.387       .  A
C26          C29   1.347       .  A
C27          C38   1.374       .  A
C27          C30   1.390       .  A
C28          C42   1.396       .  A
C28          C31   1.365       .  A
C29          C32   1.394       .  A
C30          C36   1.397       .  A
C31          C39   1.380       .  A
C32          H45   1.082       .  S
C32          N33   1.358       .  A
N33          C34   1.353       .  A
N33         C120   1.438       .  S
C34          H35   1.084       .  S
C36          H46   1.082       .  S
C36          N37   1.366       .  A
N37          C38   1.350       .  A
N37         C361   1.450       .  S
C38          H44   1.081       .  S
C39          H41   1.083       .  S
C39          N40   1.352       .  A
N40          C42   1.366       .  A
N40         C376   1.448       .  S
C42          H43   1.084       .  S
C47          C49   1.565       .  S
C47          C51   1.550       .  S
C47         C340   1.469       .  S
C47         C914   1.536       .  S
C48          C52   1.546       .  S
C48          C54   1.538       .  S
C48         C349   1.455       .  S
C48         C917   1.519       .  S
C49         C921   1.403       .  A
C49         C484   1.397       .  A
C50         C911   1.538       .  S
C50          C61   1.395       .  A
C50         C485   1.361       .  A
C51          C65   1.393       .  A
C51         C486   1.365       .  A
C52         C481   1.375   1_554  A
C52         C919   1.387       .  A
C53         C912   1.523   1_545  S
C53          C59   1.388       .  A
C53         C482   1.349   1_554  A
C54          C62   1.376       .  A
C54         C483   1.391   1_554  A
C55         C916   1.387       .  A
C55          H68   1.081       .  S
C55          N56   1.358   1_554  A
N56         C489   1.353       .  A
N56         C132   1.430       .  S
C57         C913   1.403       .  A
C57          H58   1.082       .  S
C57         N488   1.355       .  A
C59          H69   1.081       .  S
C59          N60   1.359   1_554  A
N60         C493   1.354       .  A
N60         C385   1.445       .  S
C61          H67   1.084       .  S
C61         N492   1.368       .  A
C62          H64   1.083       .  S
C62          N63   1.354   1_554  A
N63         C497   1.371       .  A
N63         C397   1.454       .  S
C65          H66   1.080       .  S
C65         N495   1.356       .  A
C70          C72   1.540       .  S
C70          C74   1.545       .  S
C70         C352   1.452       .  S
C70         C937   1.508       .  S
C71          C75   1.546       .  S
C71          C77   1.549       .  S
C71         C337   1.480       .  S
C71         C940   1.546       .  S
C72          C75   1.380       .  A
C72         C944   1.384       .  A
C73         C934   1.511   1_545  S
C73          C84   1.386       .  A
C73          C76   1.351       .  A
C74          C88   1.381       .  A
C74          C77   1.390       .  A
C75         C942   1.383       .  A
C76         C935   1.549   1_545  S
C76          C82   1.390       .  A
C77          C85   1.397       .  A
C78         C939   1.387       .  A
C78          H91   1.083       .  S
C78          N79   1.355       .  A
N79          C80   1.356       .  A
N79         C145   1.436       .  S
C80         C936   1.387       .  A
C80          H81   1.082       .  S
C82          H92   1.081       .  S
C82          N83   1.352       .  A
N83          C84   1.359       .  A
N83         C364   1.447       .  S
C84          H90   1.081       .  S
C85          H87   1.081       .  S
C85          N86   1.363       .  A
N86          C88   1.350       .  A
N86         C373   1.450       .  S
C88          H89   1.083       .  S
O93        Cu101   2.023       .  S
O93         C103   1.277       .  A
O94        Cu101   2.048       .  S
O94         C104   1.279       .  A
O95        Cu101   2.349       .  S
O95         C105   1.324       .  A
O96        Cu533   2.358       .  S
O96         C106   1.325       .  A
O97        Cu102   2.368       .  S
O97         C106   1.327       .  A
O98        Cu534   2.345       .  S
O98         C105   1.323       .  A
O99        Cu534   2.058       .  S
O99         C104   1.281       .  A
O100       Cu102   2.019       .  S
O100        C535   1.276       .  A
Cu101       O528   2.370       .  S
Cu101      Cu534   2.320       .  S
Cu102       O530   2.356   1_554  S
Cu102       O531   2.018       .  S
Cu102      Cu533   2.322       .  S
C103        O532   1.276       .  A
C104        N590   1.452       .  S
C105        C117   1.745       .  S
C106        C118   1.757       .  S
O107       Cu115   2.348       .  S
O107        C117   1.324       .  A
O108       Cu115   2.364       .  S
O108        C118   1.327       .  A
O109       Cu115   2.008       .  S
O109        C119   1.274       .  A
O110       Cu115   2.028       .  S
O110        C120   1.277       .  A
O111       Cu116   2.030       .  S
O111        C120   1.278       .  A
O112       Cu116   2.013       .  S
O112        C119   1.276       .  A
O113       Cu116   2.356       .  S
O113        C118   1.325       .  A
O114       Cu116   2.348       .  S
O114        C117   1.324       .  A
Cu115      Cu116   2.322       .  S
C119        N181   1.427       .  S
O121       Cu129   2.030       .  S
O121        C995   1.278       .  A
O122       Cu129   2.064   1_655  S
O122       C1428   1.282       .  A
O123       Cu129   2.345       .  S
O123        C997   1.323       .  A
O124       Cu561   2.355       .  S
O124        C998   1.325       .  A
O125       Cu130   2.355   1_554  S
O125        C134   1.325   1_545  A
O126       Cu562   2.359       .  S
O126        C133   1.326   1_545  A
O127       Cu130   2.009   1_655  S
O127        C132   1.276   1_545  A
O128       Cu130   2.021       .  S
O128        C563   1.275       .  A
Cu129       O556   2.363       .  S
Cu129     Cu1426   2.321       .  S
Cu130       O558   2.357       .  S
Cu130     Cu1425   2.323   1_545  S
C131        N211   1.437       .  S
C131        O985   1.279       .  A
C131        O560   1.275   1_565  A
C132       O1418   1.276       .  A
C133        O987   1.324       .  A
C133        C147   1.752       .  S
C134        O988   1.325       .  A
C134        C148   1.751       .  S
O135       Cu143   2.006   1_655  S
O135       C1009   1.272       .  A
O136       Cu143   2.013       .  S
O136       C1010   1.274       .  A
O137       Cu143   2.355       .  S
O137       C1011   1.326       .  A
O138       Cu143   2.362       .  S
O138       C1012   1.327       .  A
O139       Cu144   2.345       .  S
O139        C148   1.323   1_545  A
O140       Cu144   2.349       .  S
O140        C147   1.323   1_545  A
O141       Cu144   2.045       .  S
O141        C146   1.280   1_545  A
O142       Cu144   2.037   1_655  S
O142        C145   1.280   1_545  A
Cu143     Cu1008   2.323       .  S
Cu144     Cu1007   2.321   1_545  S
C145        O999   1.274       .  A
C146        N234   1.441       .  S
C146       O1000   1.276       .  A
C147       O1001   1.327       .  A
C148       O1002   1.327       .  A
C149        C151   1.569       .  S
C149        C153   1.539       .  S
C149        C152   1.568       .  S
C149        C313   1.476       .  S
C150        C154   1.527       .  S
C150        C156   1.525       .  S
C150        C155   1.554       .  S
C150        C325   1.456       .  S
C151        C159   1.411       .  A
C151        C586   1.369       .  A
C152        C163   1.403       .  A
C152        C587   1.368       .  A
C153        C167   1.383       .  A
C153        C588   1.377       .  A
C154        C157   1.382       .  A
C154        C583   1.363   1_554  A
C155        C161   1.385       .  A
C155        C584   1.399   1_554  A
C156        C164   1.387       .  A
C156        C585   1.351   1_554  A
C157        H170   1.083       .  S
C157        N158   1.351       .  A
N158        C591   1.359   1_554  A
N158        C536   1.434       .  S
C159        H160   1.081       .  S
C159        N590   1.370       .  A
C161        H171   1.081       .  S
C161        N594   1.365   1_554  A
N162        C163   1.362       .  A
N162        C593   1.354       .  A
N162        C301   1.455       .  S
C163        H169   1.081       .  S
C164        H166   1.083       .  S
C164        N165   1.356       .  A
N165        C599   1.355   1_554  A
N165        C724   1.441       .  S
C167        H168   1.082       .  S
C167        N597   1.360       .  A
C172        C174   1.524       .  S
C172        C176   1.552       .  S
C172        C175   1.524       .  S
C172        C328   1.462       .  S
C173        C177   1.545       .  S
C173        C179   1.540       .  S
C173        C178   1.561       .  S
C173        C316   1.483       .  S
C174        C182   1.376       .  A
C174        C177   1.372       .  A
C175        C186   1.366       .  A
C175        C178   1.379       .  A
C176        C190   1.406       .  A
C176        C179   1.369       .  A
C177        C180   1.389       .  A
C178        C184   1.403       .  A
C179        C187   1.374       .  A
C180        H193   1.082       .  S
C180        N181   1.358       .  A
N181        C182   1.349       .  A
C182        H183   1.084       .  S
C184        H194   1.081       .  S
C184        N185   1.373       .  A
N185        C186   1.347       .  A
N185        C277   1.451       .  S
C186        H192   1.083       .  S
C187        H189   1.084       .  S
C187        N188   1.344       .  A
N188        C190   1.370       .  A
N188        C265   1.449       .  S
C190        H191   1.082       .  S
C195        C197   1.560       .  S
C195        C199   1.525       .  S
C195        C244   1.434       .  S
C195       C1062   1.534       .  S
C196        C200   1.544       .  S
C196        C202   1.528       .  S
C196        C253   1.436       .  S
C196       C1065   1.548       .  S
C197        C205   1.389       .  A
C197        C632   1.398       .  A
C198       C1059   1.536       .  S
C198        C209   1.390   1_565  A
C198        C633   1.350       .  A
C199        C213   1.388       .  A
C199        C634   1.347       .  A
C200        C203   1.391       .  A
C200        C629   1.358   1_554  A
C201       C1060   1.545       .  S
C201        C207   1.384       .  A
C201        C630   1.393   1_554  A
C202        C210   1.391       .  A
C202        C631   1.347   1_554  A
C203        H216   1.080       .  S
C203        N636   1.361   1_554  A
N204        C205   1.361       .  A
N204        C635   1.363       .  A
N204        C304   1.453       .  S
C205        H206   1.082       .  S
C207        H217   1.083       .  S
C207        N640   1.358       .  A
N208        C209   1.358       .  A
N208        C639   1.359       .  A
N208        C289   1.451       .  S
C209        H215   1.082       .  S
C210        H212   1.082       .  S
C210       N1507   1.357       .  A
N211       C1506   1.351       .  A
N211       C1077   1.360       .  A
C213        H214   1.083       .  S
C213       N1075   1.357       .  A
C218        C220   1.554       .  S
C218        C222   1.518       .  S
C218        C256   1.434       .  S
C218       C1085   1.540       .  S
C219        C223   1.526       .  S
C219        C225   1.532       .  S
C219        C241   1.436       .  S
C219       C1088   1.557       .  S
C220        C228   1.400       .  A
C220        C223   1.367       .  A
C221       C1082   1.539       .  S
C221        C232   1.372       .  A
C221        C224   1.379       .  A
C222        C236   1.385       .  A
C222        C225   1.349       .  A
C223        C226   1.373       .  A
C224       C1083   1.557   1_545  S
C224        C230   1.402       .  A
C225        C233   1.390       .  A
C226        H239   1.084       .  S
C226        N227   1.349       .  A
N227        C228   1.372       .  A
N227        C280   1.453       .  S
C228        H229   1.081       .  S
C230        H240   1.082       .  S
C230        N231   1.372       .  A
N231        C232   1.347       .  A
N231        C268   1.449       .  S
C232        H238   1.084       .  S
C233        H235   1.082       .  S
C233       N1098   1.357       .  A
N234       C1097   1.358       .  A
N234       C1100   1.357   1_565  A
C236        H237   1.083       .  S
C236       N1098   1.354       .  A
C241        C246   1.430       .  A
C241       C1106   1.383       .  A
C242        C243   1.362       .  A
C242       C1105   1.381   1_545  A
C242        H251   1.081       .  S
C243       C1108   1.425   1_545  A
C243        S247   1.821       .  S
C244        C245   1.377       .  A
C244       C1107   1.422       .  A
C245        C246   1.363       .  A
C245        H252   1.077       .  S
C246        S248   1.822       .  S
S247        H250   1.406       .  S
S248        H249   1.407       .  S
C253        C254   1.410       .  A
C253       C1122   1.401       .  A
C254        C255   1.358       .  A
C254        H263   1.083       .  S
C255        C256   1.392       .  A
C255        S259   1.810       .  S
C256       C1121   1.406       .  A
C257        C258   1.366       .  A
C257       C1120   1.412       .  A
C257        H264   1.081       .  S
C258       C1117   1.393       .  A
C258        S260   1.809       .  S
S259        H262   1.407       .  S
S260        H261   1.407       .  S
C265        C266   1.411       .  A
C265        C270   1.411       .  A
C266        C267   1.404       .  A
C266        H275   1.084       .  S
C267        C268   1.410       .  A
C267        S271   1.800       .  S
C268        C269   1.413       .  A
C269        C270   1.409       .  A
C269        H276   1.083       .  S
C270        S272   1.801       .  S
S271        H274   1.407       .  S
S272        H273   1.405       .  S
C277        C278   1.409       .  A
C277        C282   1.411       .  A
C278        C279   1.407       .  A
C278        H287   1.081       .  S
C279        C280   1.413       .  A
C279        S283   1.803       .  S
C280        C281   1.412       .  A
C281        C282   1.412       .  A
C281        H288   1.081       .  S
C282        S284   1.804       .  S
S283        H286   1.407       .  S
S284        H285   1.407       .  S
C289        C290   1.406       .  A
C289        C726   1.416       .  A
C290        C291   1.404       .  A
C290        H299   1.083       .  S
C291        C292   1.413       .  A
C291        S295   1.802       .  S
C292        C725   1.408       .  A
C292        N597   1.450       .  S
C293        C294   1.402       .  A
C293        C724   1.403       .  A
C293        H300   1.084       .  S
C294        C721   1.416       .  A
C294        S296   1.801       .  S
S295        H298   1.407       .  S
S296        H297   1.406       .  S
C301        C306   1.417       .  A
C301        C734   1.408       .  A
C302        C303   1.407       .  A
C302        C733   1.407   1_554  A
C302        H311   1.084       .  S
C303        C736   1.418   1_554  A
C303        S307   1.801       .  S
C304        C305   1.408       .  A
C304        C735   1.415       .  A
C305        C306   1.412       .  A
C305        H312   1.082       .  S
C306        S308   1.801       .  S
S307        H310   1.407       .  S
S308        H309   1.406       .  S
C313        C314   1.390       .  A
C313        C318   1.383       .  A
C314        C315   1.384       .  A
C314        H323   1.084       .  S
C315        C316   1.428       .  A
C315        S319   1.811       .  S
C316        C317   1.420       .  A
C317        C318   1.372       .  A
C317        H324   1.077       .  S
C318        S320   1.805       .  S
S319        H322   1.408       .  S
S320        H321   1.406       .  S
C325        C326   1.385       .  A
C325        C330   1.427       .  A
C326        C327   1.374       .  A
C326        H335   1.082       .  S
C327        C328   1.427       .  A
C327        S331   1.817       .  S
C328        C329   1.386       .  A
C329        C330   1.364       .  A
C329        H336   1.082       .  S
C330        S332   1.823       .  S
S331        H334   1.395       .  S
S332        H333   1.406       .  S
C337        C342   1.426       .  A
C337       C1202   1.421       .  A
C338        C339   1.366       .  A
C338       C1201   1.419   1_545  A
C338        H347   1.075       .  S
C339       C1204   1.379       .  A
C339        S343   1.807       .  S
C340        C341   1.392       .  A
C340       C1203   1.378       .  A
C341        C342   1.384       .  A
C341        H348   1.084       .  S
C342        S344   1.810       .  S
S343        H346   1.407       .  S
S344        H345   1.407       .  S
C349        C354   1.418       .  A
C349       C1214   1.408       .  A
C350        C351   1.368   1_565  A
C350       C1213   1.406       .  A
C350        H359   1.081   1_565  S
C351       C1216   1.398   1_545  A
C351        S355   1.813       .  S
C352        C353   1.394       .  A
C352       C1215   1.396       .  A
C353        C354   1.370       .  A
C353        H360   1.082       .  S
C354        S356   1.814       .  S
S355        H358   1.406       .  S
S356        H357   1.407       .  S
C361        C362   1.409       .  A
C361        C366   1.415       .  A
C362        C363   1.399       .  A
C362        H371   1.083       .  S
C363        C364   1.411       .  A
C363        S367   1.802       .  S
C364        C365   1.410       .  A
C365        C366   1.409       .  A
C365        H372   1.083       .  S
C366        S368   1.799       .  S
S367        H370   1.407       .  S
S368        H369   1.406       .  S
C373        C374   1.403       .  A
C373        C378   1.419       .  A
C374        C375   1.408       .  A
C374        H383   1.083       .  S
C375        C376   1.417       .  A
C375        S379   1.802       .  S
C376        C377   1.403       .  A
C377        C378   1.408       .  A
C377        H384   1.082       .  S
C378        S380   1.807       .  S
S379        H382   1.407       .  S
S380        H381   1.407       .  S
C385        C390   1.412   1_556  A
C385        C818   1.408       .  A
C386        C387   1.415       .  A
C386        C817   1.411       .  A
C386        H395   1.082       .  S
C387        C820   1.419       .  A
C387        S391   1.801       .  S
C388        C389   1.406   1_556  A
C388        C819   1.415       .  A
C389        C390   1.400       .  A
C389        H396   1.084       .  S
C390        S392   1.802       .  S
S391        H394   1.407       .  S
S392        H393   1.407       .  S
C397        C398   1.411   1_556  A
C397        C834   1.414       .  A
C398        C399   1.407       .  A
C398        H407   1.083       .  S
C399        C400   1.415       .  A
C399        S403   1.802       .  S
C400        C833   1.408   1_554  A
C401        C402   1.410       .  A
C401        C832   1.406       .  A
C401        H408   1.084       .  S
C402        C829   1.419       .  A
C402        S404   1.802       .  S
S403        H406   1.407       .  S
S404        H405   1.407       .  S
C409        C410   1.424       .  A
C409        C414   1.404       .  A
C410        C411   1.363       .  A
C410        H419   1.082       .  S
C411        C412   1.378       .  A
C411        S415   1.801       .  S
C412        C413   1.411       .  A
C413        C414   1.363       .  A
C413        H420   1.084       .  S
C414        S416   1.814       .  S
S415        H418   1.407       .  S
S416        H417   1.406       .  S
C421        C422   1.402       .  A
C421        C426   1.401       .  A
C422        C423   1.352       .  A
C422        H431   1.084       .  S
C423        C424   1.405       .  A
C423        S427   1.820       .  S
C424        C425   1.404       .  A
C425        C426   1.372       .  A
C425        H432   1.080       .  S
C426        S428   1.810       .  S
S427        H430   1.407       .  S
S428        H429   1.407       .  S
C433        C435   1.525       .  S
C433        C437   1.526       .  S
C433        C436   1.560       .  S
C433        C844   1.441       .  S
C434        C438   1.523       .  S
C434        C440   1.553       .  S
C434        C439   1.534       .  S
C434        C853   1.440       .  S
C435        C443   1.387       .  A
C436        C447   1.393       .  A
C437        C451   1.379       .  A
C438        C441   1.389       .  A
C439        C445   1.388       .  A
C440        C448   1.385       .  A
C441        H454   1.083       .  S
N442        C443   1.357   1_554  A
N442        C535   1.432       .  S
C443        H444   1.080       .  S
C445        H455   1.082       .  S
C445        N446   1.360       .  A
N446        C820   1.459       .  S
C447        H453   1.082       .  S
C448        H450   1.083       .  S
C448        N449   1.357       .  A
N449        C832   1.453       .  S
C451        H452   1.082       .  S
C456        C458   1.526       .  S
C456        C460   1.527       .  S
C456        C459   1.550       .  S
C456        C856   1.438       .  S
C457        C461   1.534       .  S
C457        C463   1.559       .  S
C457        C462   1.527       .  S
C457        C841   1.441       .  S
C458        C466   1.389       .  A
C458        C461   1.354       .  A
C459        C470   1.396       .  A
C459        C462   1.371       .  A
C460        C474   1.366       .  A
C460        C463   1.377       .  A
C461        C464   1.391       .  A
C462        C468   1.373       .  A
C463        C471   1.402       .  A
C464        H477   1.082       .  S
C464        N465   1.360       .  A
N465        C466   1.358       .  A
N465        C552   1.443       .  S
C466        H467   1.081       .  S
C468        H478   1.081       .  S
C468        N469   1.348       .  A
N469        C470   1.365       .  A
N469        C793   1.440       .  S
C470        H476   1.083       .  S
C471        H473   1.081       .  S
C471        N472   1.372       .  A
N472        C474   1.349       .  A
N472        C808   1.449       .  S
C474        H475   1.082       .  S
C479        C481   1.536       .  S
C479        C483   1.564       .  S
C479       C1346   1.540       .  S
C479        C772   1.470       .  S
C480        C484   1.544       .  S
C480        C486   1.548       .  S
C480       C1349   1.523       .  S
C480        C781   1.461       .  S
C481       C1353   1.382       .  A
C482       C1343   1.535   1_545  S
C482        C493   1.389       .  A
C483        C497   1.397       .  A
C484       C1351   1.391       .  A
C485       C1344   1.525       .  S
C485        C491   1.382       .  A
C486        C494   1.394       .  A
C487       C1348   1.399       .  A
C487        H500   1.082       .  S
C487        N488   1.355       .  A
N488        C564   1.451       .  S
C489       C1345   1.380       .  A
C489        H490   1.083       .  S
C491        H501   1.080       .  S
C491        N492   1.362       .  A
N492        C817   1.461       .  S
C493        H499   1.083       .  S
C494        H496   1.079       .  S
C494        N495   1.359       .  A
N495        C829   1.452       .  S
C497        H498   1.081       .  S
C502        C504   1.519       .  S
C502        C506   1.548       .  S
C502       C1369   1.527       .  S
C502        C784   1.464       .  S
C503        C507   1.554       .  S
C503        C509   1.539       .  S
C503       C1372   1.522       .  S
C503        C769   1.469       .  S
C504       C1376   1.371       .  A
C504        C507   1.381       .  A
C505       C1366   1.528       .  S
C505        C516   1.377       .  A
C505        C508   1.357       .  A
C506        C520   1.394       .  A
C506        C509   1.387       .  A
C507       C1374   1.386       .  A
C508       C1367   1.522       .  S
C508        C514   1.391       .  A
C509        C517   1.381       .  A
C510       C1371   1.389   1_565  A
C510        H523   1.082       .  S
C510        N511   1.359       .  A
N511        C512   1.353       .  A
N511        C577   1.432       .  S
C512       C1368   1.378   1_565  A
C512        H513   1.082       .  S
C514        H524   1.082       .  S
C514        N515   1.362       .  A
N515        C516   1.351       .  A
N515        C796   1.438       .  S
C516        H522   1.082       .  S
C517        H519   1.081       .  S
C517        N518   1.345       .  A
N518        C520   1.363       .  A
N518        C805   1.447       .  S
C520        H521   1.081       .  S
O525       Cu533   2.019       .  S
O525        C535   1.276       .  A
O526       Cu533   2.026       .  S
O526        C536   1.278       .  A
O527       Cu533   2.351   1_556  S
O527        C537   1.325       .  A
O528        C538   1.328       .  A
O529       Cu534   2.367       .  S
O529        C538   1.327       .  A
O530        C537   1.326       .  A
O531        C536   1.275       .  A
O532       Cu534   2.018       .  S
C537        C549   1.751       .  S
C538        C550   1.763       .  S
O539       Cu547   2.357       .  S
O539        C549   1.325       .  A
O540       Cu547   2.367       .  S
O540        C550   1.327       .  A
O541       Cu547   2.030       .  S
O541        C551   1.278       .  A
O542       Cu547   2.044       .  S
O542        C552   1.279       .  A
O543       Cu548   2.034       .  S
O543        C552   1.277       .  A
O544       Cu548   2.016       .  S
O544        C551   1.275       .  A
O545       Cu548   2.369       .  S
O545        C550   1.328       .  A
O546       Cu548   2.356       .  S
O546        C549   1.325       .  A
Cu547      Cu548   2.320       .  S
C551        N613   1.434       .  S
O553       Cu561   2.036       .  S
O553       C1427   1.279       .  A
O554       Cu561   2.025   1_656  S
O554        C996   1.276   1_556  A
O555       Cu561   2.361   1_556  S
O555       C1429   1.326       .  A
O556       C1430   1.326       .  A
O557       Cu562   2.369       .  S
O557        C566   1.328   1_545  A
O558        C565   1.326   1_545  A
O559       Cu562   2.029   1_655  S
O559        C564   1.276       .  A
O560       Cu562   2.015       .  S
Cu561      Cu994   2.322       .  S
Cu562      Cu993   2.319   1_545  S
C563        N643   1.437       .  S
C563       O1417   1.279   1_545  A
C564        O986   1.284   1_545  A
C565       O1419   1.325       .  A
C565        C579   1.751       .  S
C566       O1420   1.326       .  A
C566        C580   1.761       .  S
O567       Cu575   2.006   1_655  S
O567       C1441   1.274       .  A
O568       Cu575   2.022       .  S
O568       C1442   1.277       .  A
O569       Cu575   2.364       .  S
O569       C1443   1.327       .  A
O570       Cu575   2.369       .  S
O570       C1444   1.328       .  A
O571       Cu576   2.367       .  S
O571        C580   1.327   1_545  A
O572       Cu576   2.353       .  S
O572        C579   1.325   1_545  A
O573       Cu576   2.014       .  S
O573        C578   1.275   1_545  A
O574       Cu576   2.012   1_655  S
O574        C577   1.276   1_545  A
Cu575     Cu1440   2.323       .  S
Cu576     Cu1439   2.322   1_545  S
C577       O1431   1.276       .  A
C578        N666   1.432       .  S
C578       O1432   1.277       .  A
C579       O1433   1.326       .  A
C580       O1434   1.327       .  A
C581        C583   1.537       .  S
C581        C585   1.533       .  S
C581        C584   1.560       .  S
C581        C745   1.464       .  S
C582        C586   1.528       .  S
C582        C588   1.540       .  S
C582        C587   1.538       .  S
C582        C757   1.454       .  S
C583        C591   1.391       .  A
C584        C595   1.386       .  A
C585        C599   1.386       .  A
C586        C589   1.384       .  A
C587        C593   1.387       .  A
C588        C596   1.392       .  A
C589        H602   1.083       .  S
C589        N590   1.348       .  A
C591        H592   1.082       .  S
C593        H603   1.081       .  S
N594        C595   1.365       .  A
N594        C733   1.456       .  S
C595        H601   1.082       .  S
C596        H598   1.082       .  S
C596        N597   1.362       .  A
C599        H600   1.081       .  S
C604        C606   1.525       .  S
C604        C608   1.539       .  S
C604        C607   1.547       .  S
C604        C760   1.453       .  S
C605        C609   1.549       .  S
C605        C611   1.532       .  S
C605        C610   1.543       .  S
C605        C748   1.460       .  S
C606        C614   1.378       .  A
C606        C609   1.368       .  A
C607        C618   1.393       .  A
C607        C610   1.382       .  A
C608        C622   1.384       .  A
C608        C611   1.366       .  A
C609        C612   1.396       .  A
C610        C616   1.375       .  A
C611        C619   1.389       .  A
C612        H625   1.081       .  S
C612        N613   1.361       .  A
N613        C614   1.348       .  A
C614        H615   1.084       .  S
C616        H626   1.082       .  S
C616        N617   1.350       .  A
N617        C618   1.364       .  A
N617        C709   1.445       .  S
C618        H624   1.080       .  S
C619        H621   1.081       .  S
C619        N620   1.363       .  A
N620        C622   1.356       .  A
N620        C697   1.447       .  S
C622        H623   1.083       .  S
C627        C629   1.550       .  S
C627        C631   1.528       .  S
C627       C1494   1.547       .  S
C627        C676   1.439       .  S
C628        C632   1.554       .  S
C628        C634   1.521       .  S
C628       C1497   1.545       .  S
C628        C685   1.432       .  S
C629        C637   1.393       .  A
C630       C1491   1.545       .  S
C630        C641   1.385       .  A
C631        C645   1.388       .  A
C632        C635   1.387       .  A
C633       C1492   1.542       .  S
C633        C639   1.396   1_565  A
C634        C642   1.385       .  A
C635        H648   1.081       .  S
N636        C637   1.361       .  A
N636        C736   1.457       .  S
C637        H638   1.082       .  S
C639        H649   1.082       .  S
N640        C641   1.359   1_554  A
N640        C721   1.446       .  S
C641        H647   1.081       .  S
C642        H644   1.083       .  S
C642       N1075   1.352       .  A
N643       C1074   1.353   1_556  A
N643       C1509   1.358       .  A
C645        H646   1.085       .  S
C645       N1507   1.354   1_556  A
C650        C652   1.520       .  S
C650        C654   1.523       .  S
C650       C1517   1.555       .  S
C650        C688   1.433       .  S
C651        C655   1.552       .  S
C651        C657   1.526       .  S
C651       C1520   1.538       .  S
C651        C673   1.439       .  S
C652        C660   1.366       .  A
C652        C655   1.373       .  A
C653       C1514   1.557   1_545  S
C653        C664   1.400       .  A
C653        C656   1.376       .  A
C654        C668   1.385       .  A
C654        C657   1.350       .  A
C655        C658   1.396       .  A
C656       C1515   1.540       .  S
C656        C662   1.376       .  A
C657        C665   1.385       .  A
C658        H671   1.082       .  S
C658        N659   1.369       .  A
N659        C660   1.348       .  A
N659        C712   1.443       .  S
C660        H661   1.083       .  S
C662        H672   1.082       .  S
C662        N663   1.350       .  A
N663        C664   1.367       .  A
N663        C700   1.448       .  S
C664        H670   1.083       .  S
C665        H667   1.083       .  S
C665       N1530   1.356       .  A
N666       C1529   1.358       .  A
N666       C1532   1.352       .  A
C668        H669   1.082       .  S
C668       N1530   1.353       .  A
C673       C1538   1.412       .  A
C673        C678   1.399       .  A
C674       C1537   1.406       .  A
C674        C675   1.366       .  A
C674        H683   1.082       .  S
C675       C1540   1.400       .  A
C675        S679   1.805       .  S
C676       C1539   1.394       .  A
C676        C677   1.409       .  A
C677        C678   1.357       .  A
C677        H684   1.084       .  S
C678        S680   1.814       .  S
S679        H682   1.404       .  S
S680        H681   1.407       .  S
C685        C686   1.380       .  A
C685       C1554   1.423       .  A
C686        C687   1.368       .  A
C686        H695   1.077       .  S
C687        C688   1.425       .  A
C687        S691   1.817       .  S
C688       C1553   1.385       .  A
C689       C1552   1.382   1_545  A
C689        C690   1.351   1_545  A
C689        H696   1.082       .  S
C690       C1549   1.427       .  A
C690        S692   1.824   1_565  S
S691        H694   1.407       .  S
S692        H693   1.407       .  S
C697        C698   1.401       .  A
C697        C702   1.419       .  A
C698        C699   1.404       .  A
C698        H707   1.083       .  S
C699        C700   1.419       .  A
C699        S703   1.803       .  S
C700        C701   1.403       .  A
C701        C702   1.409       .  A
C701        H708   1.083       .  S
C702        S704   1.802       .  S
S703        H706   1.407       .  S
S704        H705   1.407       .  S
C709        C710   1.408       .  A
C709        C714   1.409       .  A
C710        C711   1.404       .  A
C710        H719   1.082       .  S
C711        C712   1.410       .  A
C711        S715   1.804       .  S
C712        C713   1.408       .  A
C713        C714   1.406       .  A
C713        H720   1.083       .  S
C714        S716   1.803       .  S
S715        H718   1.407       .  S
S716        H717   1.407       .  S
C721        C722   1.407   1_554  A
C722        C723   1.403       .  A
C722        H731   1.084       .  S
C723        C724   1.412   1_556  A
C723        S727   1.803       .  S
C725        C726   1.413       .  A
C725        H732   1.083       .  S
C726        S728   1.801       .  S
S727        H730   1.407       .  S
S728        H729   1.406       .  S
C733        C738   1.419       .  A
C734        C735   1.407       .  A
C734        H743   1.082       .  S
C735        S739   1.802       .  S
C736        C737   1.409       .  A
C737        C738   1.409       .  A
C737        H744   1.084       .  S
C738        S740   1.802       .  S
S739        H742   1.407       .  S
S740        H741   1.407       .  S
C745        C746   1.405       .  A
C745        C750   1.435       .  A
C746        C747   1.377       .  A
C746        H755   1.080       .  S
C747        C748   1.397       .  A
C747        S751   1.810       .  S
C748        C749   1.380       .  A
C749        C750   1.369       .  A
C749        H756   1.082       .  S
C750        S752   1.820       .  S
S751        H754   1.407       .  S
S752        H753   1.407       .  S
C757        C758   1.413       .  A
C757        C762   1.405       .  A
C758        C759   1.365       .  A
C758        H767   1.083       .  S
C759        C760   1.391       .  A
C759        S763   1.803       .  S
C760        C761   1.406       .  A
C761        C762   1.368       .  A
C761        H768   1.084       .  S
C762        S764   1.810       .  S
S763        H766   1.404       .  S
S764        H765   1.407       .  S
C769       C1634   1.378       .  A
C769        C774   1.401       .  A
C770       C1633   1.379       .  A
C770        C771   1.367       .  A
C770        H779   1.084       .  S
C771       C1636   1.436   1_545  A
C771        S775   1.818       .  S
C772       C1635   1.442       .  A
C772        C773   1.402       .  A
C773        C774   1.375       .  A
C773        H780   1.082       .  S
C774        S776   1.808       .  S
S775        H778   1.408       .  S
S776        H777   1.404       .  S
C781       C1646   1.385       .  A
C781        C786   1.399       .  A
C782       C1645   1.386       .  A
C782        C783   1.374       .  A
C782        H791   1.081       .  S
C783       C1648   1.425       .  A
C783        S787   1.814       .  S
C784       C1647   1.429       .  A
C784        C785   1.404       .  A
C785        C786   1.370       .  A
C785        H792   1.082       .  S
C786        S788   1.811       .  S
S787        H790   1.407       .  S
S788        H789   1.407       .  S
C793        C794   1.401       .  A
C793        C798   1.417       .  A
C794        C795   1.400       .  A
C794        H803   1.083       .  S
C795        C796   1.412       .  A
C795        S799   1.802       .  S
C796        C797   1.402       .  A
C797        C798   1.406       .  A
C797        H804   1.083       .  S
C798        S800   1.803       .  S
S799        H802   1.407       .  S
S800        H801   1.406       .  S
C805        C806   1.413       .  A
C805        C810   1.410       .  A
C806        C807   1.409       .  A
C806        H815   1.083       .  S
C807        C808   1.412       .  A
C807        S811   1.800       .  S
C808        C809   1.409       .  A
C809        C810   1.403       .  A
C809        H816   1.082       .  S
C810        S812   1.807       .  S
S811        H814   1.407       .  S
S812        H813   1.406       .  S
C817        C822   1.421       .  A
C818        C819   1.409       .  A
C818        H827   1.084       .  S
C819        S823   1.801       .  S
C820        C821   1.406       .  A
C821        C822   1.405       .  A
C821        H828   1.082       .  S
C822        S824   1.802       .  S
S823        H826   1.407       .  S
S824        H825   1.406       .  S
C829        C830   1.404       .  A
C830        C831   1.405       .  A
C830        H839   1.085       .  S
C831        C832   1.417       .  A
C831        S835   1.801       .  S
C833        C834   1.407       .  A
C833        H840   1.082       .  S
C834        S836   1.799       .  S
S835        H838   1.407       .  S
S836        H837   1.406       .  S
C841        C842   1.383       .  A
C841        C846   1.425       .  A
C842        C843   1.363       .  A
C842        H851   1.083       .  S
C843        C844   1.428       .  A
C843        S847   1.823       .  S
C844        C845   1.381       .  A
C845        C846   1.361       .  A
C845        H852   1.082       .  S
C846        S848   1.817       .  S
S847        H850   1.394       .  S
S848        H849   1.408       .  S
C853        C854   1.387       .  A
C853        C858   1.423       .  A
C854        C855   1.366       .  A
C854        H863   1.081       .  S
C855        C856   1.418       .  A
C855        S859   1.816       .  S
C856        C857   1.385       .  A
C857        C858   1.361       .  A
C857        H864   1.082       .  S
C858        S860   1.821       .  S
S859        H862   1.407       .  S
S860        H861   1.407       .  S
C865        C867   1.526       .  S
C865        C869   1.558       .  S
C865        C868   1.556       .  S
C865       C1276   1.447       .  S
C866        C870   1.524       .  S
C866        C872   1.549       .  S
C866        C871   1.536       .  S
C866       C1285   1.447       .  S
C867        C875   1.385       .  A
C867       C1302   1.343       .  A
C868        C879   1.399       .  A
C868       C1303   1.351       .  A
C869        C883   1.392       .  A
C869       C1304   1.408       .  A
C870       C1299   1.352   1_554  A
C870        C873   1.385       .  A
C871       C1300   1.398   1_554  A
C871        C877   1.378       .  A
C872       C1301   1.362   1_554  A
C872        C880   1.392       .  A
C873        H886   1.086       .  S
C873       N1306   1.354       .  A
N874       C1305   1.353       .  A
N874        C875   1.353       .  A
N874        C967   1.431       .  S
C875        H876   1.082       .  S
C877        H887   1.083       .  S
C877        N878   1.351   1_554  A
N878       C1311   1.362       .  A
N878       C1252   1.447       .  S
C879        H885   1.082       .  S
C879       N1310   1.366       .  A
C880        H882   1.081       .  S
C880        N881   1.363   1_554  A
N881       C1315   1.352       .  A
N881       C1264   1.448       .  S
C883        H884   1.080       .  S
C883       N1313   1.358       .  A
C888        C890   1.519       .  S
C888        C892   1.546       .  S
C888        C891   1.538       .  S
C888       C1288   1.443       .  S
C889        C893   1.541       .  S
C889        C895   1.530       .  S
C889        C894   1.546       .  S
C889       C1273   1.448       .  S
C890        C898   1.388       .  A
C890        C893   1.349       .  A
C891        C902   1.374       .  A
C891        C894   1.399       .  A
C892        C906   1.390       .  A
C892        C895   1.365       .  A
C893        C896   1.394       .  A
C894        C900   1.395       .  A
C895        C903   1.377       .  A
C896        H909   1.083       .  S
C896        N897   1.358       .  A
N897        C898   1.356       .  A
N897        C984   1.442       .  S
C898        H899   1.083       .  S
C900        H910   1.081       .  S
C900        N901   1.358       .  A
N901        C902   1.345       .  A
N901       C1225   1.437       .  S
C902        H908   1.083       .  S
C903        H905   1.082       .  S
C903        N904   1.352       .  A
N904        C906   1.363       .  A
N904       C1240   1.440       .  S
C906        H907   1.082       .  S
C911        C913   1.564       .  S
C911        C915   1.548       .  S
C911       C1204   1.471       .  S
C912        C916   1.546       .  S
C912        C918   1.541       .  S
C912       C1213   1.453       .  S
C913       C1348   1.396       .  A
C914        C925   1.393       .  A
C914       C1349   1.359       .  A
C915        C929   1.391   1_545  A
C915       C1350   1.366       .  A
C916       C1345   1.376   1_554  A
C917       C1346   1.347   1_554  A
C917        C923   1.387       .  A
C918       C1347   1.387   1_554  A
C918        C926   1.379       .  A
C919        H932   1.082       .  S
C919        N920   1.358       .  A
N920       C1353   1.354   1_554  A
N920        C996   1.434       .  S
C921        H922   1.083       .  S
C921       N1352   1.357       .  A
C923        H933   1.081       .  S
C923        N924   1.357   1_554  A
N924       C1357   1.356       .  A
N924       C1249   1.447       .  S
C925        H931   1.084       .  S
C925       N1356   1.368       .  A
C926        H928   1.082       .  S
C926        N927   1.357   1_554  A
N927       C1361   1.366       .  A
N927       C1261   1.450       .  S
C929        H930   1.078       .  S
C929       N1359   1.354       .  A
C934        C936   1.543       .  S
C934        C938   1.543       .  S
C934       C1216   1.453       .  S
C935        C939   1.551       .  S
C935        C941   1.547       .  S
C935       C1201   1.480       .  S
C936        C939   1.380       .  A
C937        C948   1.383       .  A
C937        C940   1.353       .  A
C938        C952   1.379       .  A
C938        C941   1.390       .  A
C940        C946   1.388       .  A
C941        C949   1.396       .  A
C942        H955   1.082       .  S
C942        N943   1.353       .  A
N943        C944   1.354       .  A
N943       C1009   1.430       .  S
C944        H945   1.083       .  S
C946        H956   1.079       .  S
C946        N947   1.351       .  A
N947        C948   1.356       .  A
N947       C1228   1.436       .  S
C948        H954   1.083       .  S
C949        H951   1.082       .  S
C949        N950   1.362       .  A
N950        C952   1.349       .  A
N950       C1237   1.445       .  S
C952        H953   1.083       .  S
O957       Cu965   2.015       .  S
O957        C967   1.275       .  A
O958       Cu965   2.040       .  S
O958        C968   1.278       .  A
O959       Cu965   2.353       .  S
O959        C969   1.325       .  A
O960      Cu1397   2.352       .  S
O960        C970   1.324       .  A
O961       Cu966   2.370       .  S
O961        C970   1.328       .  A
O962      Cu1398   2.346       .  S
O962        C969   1.323       .  A
O963      Cu1398   2.056       .  S
O963        C968   1.281       .  A
O964       Cu966   2.019       .  S
O964       C1399   1.276       .  A
Cu965      O1392   2.375       .  S
Cu965     Cu1398   2.320       .  S
Cu966      O1394   2.359   1_554  S
Cu966      O1395   2.022       .  S
Cu966     Cu1397   2.322       .  S
C967       O1396   1.276       .  A
C968       N1454   1.449       .  S
C969        C981   1.747       .  S
C970        C982   1.756       .  S
O971       Cu979   2.355       .  S
O971        C981   1.325       .  A
O972       Cu979   2.368       .  S
O972        C982   1.328       .  A
O973       Cu979   2.019       .  S
O973        C983   1.275       .  A
O974       Cu979   2.038       .  S
O974        C984   1.278       .  A
O975       Cu980   2.036       .  S
O975        C984   1.278       .  A
O976       Cu980   2.023       .  S
O976        C983   1.277       .  A
O977       Cu980   2.351       .  S
O977        C982   1.324       .  A
O978       Cu980   2.346       .  S
O978        C981   1.323       .  A
Cu979      Cu980   2.321       .  S
C983       N1045   1.433       .  S
O985       Cu993   2.040       .  S
O986       Cu993   2.075   1_655  S
O987       Cu993   2.353       .  S
O988      Cu1425   2.355   1_554  S
O989       Cu994   2.353       .  S
O989        C998   1.325       .  A
O990      Cu1426   2.356       .  S
O990        C997   1.326       .  A
O991       Cu994   2.018   1_655  S
O991        C996   1.277       .  A
O992       Cu994   2.020       .  S
O992       C1427   1.276       .  A
Cu993      O1420   2.363       .  S
Cu994      O1422   2.360   1_554  S
C995       N1075   1.431       .  S
C995       O1424   1.273       .  A
C997       C1011   1.747       .  S
C998       C1012   1.750       .  S
O999      Cu1007   2.017   1_655  S
O1000     Cu1007   2.025       .  S
O1001     Cu1007   2.363       .  S
O1002     Cu1007   2.365       .  S
O1003     Cu1008   2.345       .  S
O1003      C1012   1.323       .  A
O1004     Cu1008   2.346       .  S
O1004      C1011   1.323       .  A
O1005     Cu1008   2.032       .  S
O1005      C1010   1.278       .  A
O1006     Cu1008   2.026   1_655  S
O1006      C1009   1.279       .  A
C1010      N1098   1.434       .  S
C1013      C1015   1.565       .  S
C1013      C1017   1.536       .  S
C1013      C1016   1.561       .  S
C1013      C1177   1.474       .  S
C1014      C1018   1.529       .  S
C1014      C1020   1.530       .  S
C1014      C1019   1.560       .  S
C1014      C1189   1.455       .  S
C1015      C1023   1.408       .  A
C1015      C1450   1.369       .  A
C1016      C1027   1.398       .  A
C1016      C1451   1.367       .  A
C1017      C1031   1.381       .  A
C1017      C1452   1.379       .  A
C1018      C1447   1.361   1_554  A
C1018      C1021   1.384       .  A
C1019      C1448   1.399   1_554  A
C1019      C1025   1.389       .  A
C1020      C1449   1.350   1_554  A
C1020      C1028   1.391       .  A
C1021      H1034   1.083       .  S
C1021      N1022   1.352       .  A
N1022      C1455   1.359   1_554  A
N1022      C1400   1.436       .  S
C1023      H1024   1.081       .  S
C1023      N1454   1.368       .  A
C1025      H1035   1.082       .  S
C1025      N1458   1.368   1_554  A
N1026      C1457   1.355       .  A
N1026      C1027   1.360       .  A
N1026      C1165   1.451       .  S
C1027      H1033   1.080       .  S
C1028      H1030   1.082       .  S
C1028      N1029   1.357       .  A
N1029      C1463   1.357   1_554  A
N1029      C1588   1.447       .  S
C1031      H1032   1.083       .  S
C1031      N1461   1.359       .  A
C1036      C1038   1.529       .  S
C1036      C1040   1.551       .  S
C1036      C1039   1.531       .  S
C1036      C1192   1.458       .  S
C1037      C1041   1.546       .  S
C1037      C1043   1.544       .  S
C1037      C1042   1.554       .  S
C1037      C1180   1.479       .  S
C1038      C1046   1.380       .  A
C1038      C1041   1.372       .  A
C1039      C1050   1.373       .  A
C1039      C1042   1.377       .  A
C1040      C1054   1.406       .  A
C1040      C1043   1.369       .  A
C1041      C1044   1.392       .  A
C1042      C1048   1.399       .  A
C1043      C1051   1.378       .  A
C1044      H1057   1.082       .  S
C1044      N1045   1.359       .  A
N1045      C1046   1.351       .  A
C1046      H1047   1.083       .  S
C1048      H1058   1.083       .  S
C1048      N1049   1.368       .  A
N1049      C1050   1.349       .  A
N1049      C1141   1.447       .  S
C1050      H1056   1.081       .  S
C1051      H1053   1.080       .  S
C1051      N1052   1.347       .  A
N1052      C1054   1.370       .  A
N1052      C1129   1.451       .  S
C1054      H1055   1.083       .  S
C1059      C1061   1.563       .  S
C1059      C1063   1.529       .  S
C1059      C1108   1.434       .  S
C1060      C1064   1.549       .  S
C1060      C1066   1.521       .  S
C1060      C1117   1.437       .  S
C1061      C1069   1.389       .  A
C1061      C1496   1.401       .  A
C1062      C1073   1.390       .  A
C1062      C1497   1.352       .  A
C1063      C1077   1.392       .  A
C1063      C1498   1.344       .  A
C1064      C1493   1.358   1_554  A
C1064      C1067   1.395   1_545  A
C1065      C1494   1.392   1_554  A
C1065      C1071   1.386       .  A
C1066      C1495   1.348   1_554  A
C1066      C1074   1.386       .  A
C1067      H1080   1.080       .  S
C1067      N1500   1.363       .  A
N1068      C1499   1.361       .  A
N1068      C1069   1.364       .  A
N1068      C1168   1.451       .  S
C1069      H1070   1.081       .  S
C1071      H1081   1.082       .  S
C1071      N1504   1.360       .  A
N1072      C1503   1.361       .  A
N1072      C1073   1.356       .  A
N1072      C1153   1.451       .  S
C1073      H1079   1.082       .  S
C1074      H1076   1.083       .  S
C1077      H1078   1.084       .  S
C1082      C1084   1.554   1_545  S
C1082      C1086   1.525       .  S
C1082      C1120   1.437       .  S
C1083      C1087   1.528       .  S
C1083      C1089   1.532       .  S
C1083      C1105   1.435       .  S
C1084      C1092   1.401       .  A
C1084      C1087   1.369       .  A
C1085      C1096   1.375       .  A
C1085      C1088   1.382       .  A
C1086      C1100   1.390       .  A
C1086      C1089   1.349   1_545  A
C1087      C1090   1.374       .  A
C1088      C1094   1.400       .  A
C1089      C1097   1.391       .  A
C1090      H1103   1.085       .  S
C1090      N1091   1.346       .  A
N1091      C1092   1.370       .  A
N1091      C1144   1.448       .  S
C1092      H1093   1.081       .  S
C1094      H1104   1.083       .  S
C1094      N1095   1.370       .  A
N1095      C1096   1.347       .  A
N1095      C1132   1.449       .  S
C1096      H1102   1.082       .  S
C1097      H1099   1.083       .  S
C1100      H1101   1.082       .  S
C1105      C1110   1.430       .  A
C1106      C1107   1.360       .  A
C1106      H1115   1.082       .  S
C1107      S1111   1.814       .  S
C1108      C1109   1.378       .  A
C1109      C1110   1.362       .  A
C1109      H1116   1.081       .  S
C1110      S1112   1.821       .  S
S1111      H1114   1.408       .  S
S1112      H1113   1.407       .  S
C1117      C1118   1.408   1_545  A
C1118      C1119   1.358       .  A
C1118      H1127   1.083       .  S
C1119      C1120   1.396   1_565  A
C1119      S1123   1.810       .  S
C1121      C1122   1.366       .  A
C1121      H1128   1.082       .  S
C1122      S1124   1.811       .  S
S1123      H1126   1.407       .  S
S1124      H1125   1.407       .  S
C1129      C1130   1.410       .  A
C1129      C1134   1.414       .  A
C1130      C1131   1.404       .  A
C1130      H1139   1.084       .  S
C1131      C1132   1.410       .  A
C1131      S1135   1.800       .  S
C1132      C1133   1.412       .  A
C1133      C1134   1.411       .  A
C1133      H1140   1.084       .  S
C1134      S1136   1.801       .  S
S1135      H1138   1.407       .  S
S1136      H1137   1.405       .  S
C1141      C1142   1.406       .  A
C1141      C1146   1.412       .  A
C1142      C1143   1.406       .  A
C1142      H1151   1.082       .  S
C1143      C1144   1.410       .  A
C1143      S1147   1.803       .  S
C1144      C1145   1.410       .  A
C1145      C1146   1.412       .  A
C1145      H1152   1.082       .  S
C1146      S1148   1.804       .  S
S1147      H1150   1.406       .  S
S1148      H1149   1.407       .  S
C1153      C1154   1.406       .  A
C1153      C1590   1.415       .  A
C1154      C1155   1.406       .  A
C1154      H1163   1.084       .  S
C1155      C1156   1.414       .  A
C1155      S1159   1.802       .  S
C1156      C1589   1.408       .  A
C1156      N1461   1.451       .  S
C1157      C1588   1.406       .  A
C1157      C1158   1.407       .  A
C1157      H1164   1.083       .  S
C1158      C1585   1.417       .  A
C1158      S1160   1.801       .  S
S1159      H1162   1.407       .  S
S1160      H1161   1.406       .  S
C1165      C1598   1.407       .  A
C1165      C1170   1.416       .  A
C1166      C1597   1.412   1_554  A
C1166      C1167   1.414       .  A
C1166      H1175   1.083       .  S
C1167      C1600   1.420   1_554  A
C1167      S1171   1.802       .  S
C1168      C1599   1.416       .  A
C1168      C1169   1.406       .  A
C1169      C1170   1.409       .  A
C1169      H1176   1.084       .  S
C1170      S1172   1.802       .  S
S1171      H1174   1.407       .  S
S1172      H1173   1.407       .  S
C1177      C1178   1.389       .  A
C1177      C1182   1.381       .  A
C1178      C1179   1.383       .  A
C1178      H1187   1.083       .  S
C1179      C1180   1.430       .  A
C1179      S1183   1.813       .  S
C1180      C1181   1.418       .  A
C1181      C1182   1.369       .  A
C1181      H1188   1.077       .  S
C1182      S1184   1.804       .  S
S1183      H1186   1.407       .  S
S1184      H1185   1.405       .  S
C1189      C1190   1.385       .  A
C1189      C1194   1.427       .  A
C1190      C1191   1.376       .  A
C1190      H1199   1.080       .  S
C1191      C1192   1.423       .  A
C1191      S1195   1.816       .  S
C1192      C1193   1.384       .  A
C1193      C1194   1.364       .  A
C1193      H1200   1.081       .  S
C1194      S1196   1.821       .  S
S1195      H1198   1.407       .  S
S1196      H1197   1.407       .  S
C1201      C1206   1.428       .  A
C1202      C1203   1.366       .  A
C1202      H1211   1.077       .  S
C1203      S1207   1.806       .  S
C1204      C1205   1.392       .  A
C1205      C1206   1.386   1_545  A
C1205      H1212   1.084       .  S
C1206      S1208   1.812       .  S
S1207      H1210   1.407       .  S
S1208      H1209   1.407       .  S
C1213      C1218   1.415       .  A
C1214      C1215   1.368       .  A
C1214      H1223   1.080       .  S
C1215      S1219   1.813       .  S
C1216      C1217   1.395       .  A
C1217      C1218   1.370       .  A
C1217      H1224   1.082       .  S
C1218      S1220   1.813       .  S
S1219      H1222   1.407       .  S
S1220      H1221   1.407       .  S
C1225      C1226   1.403       .  A
C1225      C1230   1.412       .  A
C1226      C1227   1.393       .  A
C1226      H1235   1.084       .  S
C1227      C1228   1.408       .  A
C1227      S1231   1.802       .  S
C1228      C1229   1.407       .  A
C1229      C1230   1.407       .  A
C1229      H1236   1.084       .  S
C1230      S1232   1.801       .  S
S1231      H1234   1.406       .  S
S1232      H1233   1.407       .  S
C1237      C1238   1.404       .  A
C1237      C1242   1.416       .  A
C1238      C1239   1.407       .  A
C1238      H1247   1.084       .  S
C1239      C1240   1.415       .  A
C1239      S1243   1.802       .  S
C1240      C1241   1.400       .  A
C1241      C1242   1.402       .  A
C1241      H1248   1.083       .  S
C1242      S1244   1.807       .  S
S1243      H1246   1.407       .  S
S1244      H1245   1.407       .  S
C1249      C1682   1.408       .  A
C1249      C1254   1.414   1_556  A
C1250      C1681   1.413       .  A
C1250      C1251   1.416       .  A
C1250      H1259   1.082       .  S
C1251      C1684   1.419       .  A
C1251      S1255   1.801       .  S
C1252      C1683   1.414       .  A
C1252      C1253   1.405   1_556  A
C1253      C1254   1.400       .  A
C1253      H1260   1.083       .  S
C1254      S1256   1.801       .  S
S1255      H1258   1.407       .  S
S1256      H1257   1.407       .  S
C1261      C1262   1.407   1_556  A
C1261      C1698   1.415       .  A
C1262      C1263   1.403       .  A
C1262      H1271   1.083       .  S
C1263      C1264   1.415   1_554  A
C1263      S1267   1.802       .  S
C1264      C1697   1.407       .  A
C1265      C1696   1.404       .  A
C1265      C1266   1.407       .  A
C1265      H1272   1.084       .  S
C1266      C1693   1.416       .  A
C1266      S1268   1.801       .  S
S1267      H1270   1.408       .  S
S1268      H1269   1.407       .  S
C1273      C1274   1.424       .  A
C1273      C1278   1.406       .  A
C1274      C1275   1.365       .  A
C1274      H1283   1.083       .  S
C1275      C1276   1.378       .  A
C1275      S1279   1.802       .  S
C1276      C1277   1.407       .  A
C1277      C1278   1.359       .  A
C1277      H1284   1.085       .  S
C1278      S1280   1.814       .  S
S1279      H1282   1.408       .  S
S1280      H1281   1.407       .  S
C1285      C1286   1.401       .  A
C1285      C1290   1.407       .  A
C1286      C1287   1.356       .  A
C1286      H1295   1.082       .  S
C1287      C1288   1.405       .  A
C1287      S1291   1.819       .  S
C1288      C1289   1.400       .  A
C1289      C1290   1.372       .  A
C1289      H1296   1.080       .  S
C1290      S1292   1.811       .  S
S1291      H1294   1.406       .  S
S1292      H1293   1.407       .  S
C1297      C1299   1.524       .  S
C1297      C1301   1.532       .  S
C1297      C1300   1.559       .  S
C1297      C1708   1.444       .  S
C1298      C1302   1.521       .  S
C1298      C1304   1.547       .  S
C1298      C1303   1.529       .  S
C1298      C1717   1.433       .  S
C1299      C1307   1.385       .  A
C1300      C1311   1.396       .  A
C1301      C1315   1.383       .  A
C1302      C1305   1.388       .  A
C1303      C1309   1.384       .  A
C1304      C1312   1.382       .  A
C1305      H1318   1.083       .  S
N1306      C1307   1.355   1_554  A
N1306      C1399   1.432       .  S
C1307      H1308   1.080       .  S
C1309      H1319   1.080       .  S
C1309      N1310   1.360       .  A
N1310      C1684   1.462       .  S
C1311      H1317   1.082       .  S
C1312      H1314   1.082       .  S
C1312      N1313   1.354       .  A
N1313      C1696   1.445       .  S
C1315      H1316   1.082       .  S
C1320      C1322   1.519       .  S
C1320      C1324   1.522       .  S
C1320      C1323   1.546       .  S
C1320      C1720   1.432       .  S
C1321      C1325   1.535       .  S
C1321      C1327   1.561       .  S
C1321      C1326   1.525       .  S
C1321      C1705   1.441       .  S
C1322      C1330   1.386       .  A
C1322      C1325   1.352       .  A
C1323      C1334   1.393       .  A
C1323      C1326   1.370       .  A
C1324      C1338   1.363       .  A
C1324      C1327   1.378       .  A
C1325      C1328   1.390       .  A
C1326      C1332   1.371       .  A
C1327      C1335   1.403       .  A
C1328      H1341   1.083       .  S
C1328      N1329   1.359       .  A
N1329      C1330   1.355       .  A
N1329      C1416   1.438       .  S
C1330      H1331   1.083       .  S
C1332      H1342   1.085       .  S
C1332      N1333   1.347       .  A
N1333      C1334   1.364       .  A
N1333      C1657   1.437       .  S
C1334      H1340   1.081       .  S
C1335      H1337   1.082       .  S
C1335      N1336   1.374       .  A
N1336      C1338   1.346       .  A
N1336      C1672   1.449       .  S
C1338      H1339   1.082       .  S
C1343      C1345   1.533       .  S
C1343      C1347   1.553       .  S
C1343      C1636   1.461       .  S
C1344      C1348   1.554       .  S
C1344      C1350   1.544       .  S
C1344      C1645   1.461       .  S
C1346      C1357   1.393       .  A
C1347      C1361   1.389       .  A
C1349      C1355   1.380       .  A
C1350      C1358   1.392   1_545  A
C1351      H1364   1.081       .  S
C1351      N1352   1.348       .  A
N1352      C1428   1.444       .  S
C1353      H1354   1.083       .  S
C1355      H1365   1.080       .  S
C1355      N1356   1.363       .  A
N1356      C1681   1.464       .  S
C1357      H1363   1.082       .  S
C1358      H1360   1.081       .  S
C1358      N1359   1.357       .  A
N1359      C1693   1.447       .  S
C1361      H1362   1.082       .  S
C1366      C1368   1.528       .  S
C1366      C1370   1.552   1_545  S
C1366      C1648   1.462       .  S
C1367      C1371   1.555       .  S
C1367      C1373   1.535   1_545  S
C1367      C1633   1.459       .  S
C1368      C1371   1.379       .  A
C1369      C1380   1.376       .  A
C1369      C1372   1.361       .  A
C1370      C1384   1.397       .  A
C1370      C1373   1.389       .  A
C1372      C1378   1.388       .  A
C1373      C1381   1.379       .  A
C1374      H1387   1.082       .  S
C1374      N1375   1.357       .  A
N1375      C1376   1.348       .  A
N1375      C1441   1.421       .  S
C1376      H1377   1.082       .  S
C1378      H1388   1.082       .  S
C1378      N1379   1.361       .  A
N1379      C1380   1.350       .  A
N1379      C1660   1.435       .  S
C1380      H1386   1.082       .  S
C1381      H1383   1.080       .  S
C1381      N1382   1.343       .  A
N1382      C1384   1.363       .  A
N1382      C1669   1.447       .  S
C1384      H1385   1.082       .  S
O1389     Cu1397   2.017       .  S
O1389      C1399   1.276       .  A
O1390     Cu1397   2.029       .  S
O1390      C1400   1.278       .  A
O1391     Cu1397   2.348   1_556  S
O1391      C1401   1.324       .  A
O1392      C1402   1.329       .  A
O1393     Cu1398   2.365       .  S
O1393      C1402   1.327       .  A
O1394      C1401   1.326       .  A
O1395      C1400   1.275       .  A
O1396     Cu1398   2.019       .  S
C1401      C1413   1.750       .  S
C1402      C1414   1.764       .  S
O1403     Cu1411   2.349       .  S
O1403      C1413   1.324       .  A
O1404     Cu1411   2.362       .  S
O1404      C1414   1.326       .  A
O1405     Cu1411   2.028       .  S
O1405      C1415   1.278       .  A
O1406     Cu1411   2.038       .  S
O1406      C1416   1.279       .  A
O1407     Cu1412   2.025       .  S
O1407      C1416   1.276       .  A
O1408     Cu1412   2.014       .  S
O1408      C1415   1.275       .  A
O1409     Cu1412   2.378       .  S
O1409      C1414   1.329       .  A
O1410     Cu1412   2.360       .  S
O1410      C1413   1.326       .  A
Cu1411    Cu1412   2.320       .  S
C1415      N1477   1.433       .  S
O1417     Cu1425   2.037       .  S
O1418     Cu1425   2.022   1_655  S
O1419     Cu1425   2.353       .  S
O1421     Cu1426   2.372       .  S
O1421      C1430   1.328       .  A
O1422      C1429   1.326       .  A
O1423     Cu1426   2.016   1_655  S
O1423      C1428   1.275       .  A
O1424     Cu1426   2.002       .  S
C1427      N1507   1.437       .  S
C1429      C1443   1.755       .  S
C1430      C1444   1.762       .  S
O1431     Cu1439   2.026   1_655  S
O1432     Cu1439   2.023       .  S
O1433     Cu1439   2.358       .  S
O1434     Cu1439   2.366       .  S
O1435     Cu1440   2.369       .  S
O1435      C1444   1.327       .  A
O1436     Cu1440   2.356       .  S
O1436      C1443   1.325       .  A
O1437     Cu1440   2.008       .  S
O1437      C1442   1.275       .  A
O1438     Cu1440   1.992   1_655  S
O1438      C1441   1.274       .  A
C1442      N1530   1.431       .  S
C1445      C1447   1.535       .  S
C1445      C1449   1.538       .  S
C1445      C1448   1.559       .  S
C1445      C1609   1.462       .  S
C1446      C1450   1.529       .  S
C1446      C1452   1.545       .  S
C1446      C1451   1.541       .  S
C1446      C1621   1.456       .  S
C1447      C1455   1.391       .  A
C1448      C1459   1.385       .  A
C1449      C1463   1.391       .  A
C1450      C1453   1.383       .  A
C1451      C1457   1.389       .  A
C1452      C1460   1.394       .  A
C1453      H1466   1.083       .  S
C1453      N1454   1.348       .  A
C1455      H1456   1.081       .  S
C1457      H1467   1.083       .  S
N1458      C1459   1.368       .  A
N1458      C1597   1.464       .  S
C1459      H1465   1.081       .  S
C1460      H1462   1.082       .  S
C1460      N1461   1.364       .  A
C1463      H1464   1.082       .  S
C1468      C1470   1.521       .  S
C1468      C1472   1.539       .  S
C1468      C1471   1.549       .  S
C1468      C1624   1.454       .  S
C1469      C1473   1.554       .  S
C1469      C1475   1.532       .  S
C1469      C1474   1.546       .  S
C1469      C1612   1.461       .  S
C1470      C1478   1.376       .  A
C1470      C1473   1.367       .  A
C1471      C1482   1.394       .  A
C1471      C1474   1.381       .  A
C1472      C1486   1.384       .  A
C1472      C1475   1.366       .  A
C1473      C1476   1.399       .  A
C1474      C1480   1.379       .  A
C1475      C1483   1.388       .  A
C1476      H1489   1.082       .  S
C1476      N1477   1.363       .  A
N1477      C1478   1.346       .  A
C1478      H1479   1.083       .  S
C1480      H1490   1.080       .  S
C1480      N1481   1.353       .  A
N1481      C1482   1.366       .  A
N1481      C1573   1.452       .  S
C1482      H1488   1.081       .  S
C1483      H1485   1.082       .  S
C1483      N1484   1.363       .  A
N1484      C1486   1.356       .  A
N1484      C1561   1.448       .  S
C1486      H1487   1.082       .  S
C1491      C1493   1.547       .  S
C1491      C1495   1.534       .  S
C1491      C1540   1.443       .  S
C1492      C1496   1.549       .  S
C1492      C1498   1.520       .  S
C1492      C1549   1.430       .  S
C1493      C1501   1.390   1_545  A
C1494      C1505   1.388       .  A
C1495      C1509   1.392       .  A
C1496      C1499   1.384       .  A
C1497      C1503   1.397       .  A
C1498      C1506   1.386       .  A
C1499      H1512   1.083       .  S
N1500      C1501   1.362   1_554  A
N1500      C1600   1.461   1_554  S
C1501      H1502   1.082       .  S
C1503      H1513   1.082       .  S
N1504      C1505   1.361   1_554  A
N1504      C1585   1.451       .  S
C1505      H1511   1.082       .  S
C1506      H1508   1.082       .  S
C1509      H1510   1.082       .  S
C1514      C1516   1.522       .  S
C1514      C1518   1.521       .  S
C1514      C1552   1.432       .  S
C1515      C1519   1.555   1_545  S
C1515      C1521   1.529   1_545  S
C1515      C1537   1.441       .  S
C1516      C1524   1.371       .  A
C1516      C1519   1.370       .  A
C1517      C1528   1.399       .  A
C1517      C1520   1.374       .  A
C1518      C1532   1.383       .  A
C1518      C1521   1.352       .  A
C1519      C1522   1.398       .  A
C1520      C1526   1.376       .  A
C1521      C1529   1.388       .  A
C1522      H1535   1.081       .  S
C1522      N1523   1.370       .  A
N1523      C1524   1.349       .  A
N1523      C1576   1.450       .  S
C1524      H1525   1.083       .  S
C1526      H1536   1.083       .  S
C1526      N1527   1.350       .  A
N1527      C1528   1.366       .  A
N1527      C1564   1.448       .  S
C1528      H1534   1.082       .  S
C1529      H1531   1.082   1_565  S
C1532      H1533   1.083       .  S
C1537      C1542   1.396   1_545  A
C1538      C1539   1.365       .  A
C1538      H1547   1.082       .  S
C1539      S1543   1.805       .  S
C1540      C1541   1.410   1_545  A
C1541      C1542   1.358       .  A
C1541      H1548   1.083       .  S
C1542      S1544   1.814       .  S
S1543      H1546   1.405       .  S
S1544      H1545   1.406       .  S
C1549      C1550   1.379       .  A
C1550      C1551   1.368       .  A
C1550      H1559   1.080       .  S
C1551      C1552   1.425       .  A
C1551      S1555   1.817       .  S
C1553      C1554   1.352       .  A
C1553      H1560   1.080       .  S
C1554      S1556   1.823       .  S
S1555      H1558   1.407       .  S
S1556      H1557   1.407       .  S
C1561      C1562   1.400       .  A
C1561      C1566   1.420       .  A
C1562      C1563   1.403       .  A
C1562      H1571   1.084       .  S
C1563      C1564   1.419       .  A
C1563      S1567   1.803       .  S
C1564      C1565   1.403       .  A
C1565      C1566   1.410       .  A
C1565      H1572   1.083       .  S
C1566      S1568   1.802       .  S
S1567      H1570   1.407       .  S
S1568      H1569   1.407       .  S
C1573      C1574   1.410       .  A
C1573      C1578   1.412       .  A
C1574      C1575   1.407       .  A
C1574      H1583   1.082       .  S
C1575      C1576   1.412       .  A
C1575      S1579   1.804       .  S
C1576      C1577   1.409       .  A
C1577      C1578   1.408       .  A
C1577      H1584   1.082       .  S
C1578      S1580   1.804       .  S
S1579      H1582   1.407       .  S
S1580      H1581   1.407       .  S
C1585      C1586   1.408   1_554  A
C1586      C1587   1.406       .  A
C1586      H1595   1.083       .  S
C1587      C1588   1.413   1_556  A
C1587      S1591   1.802       .  S
C1589      C1590   1.413       .  A
C1589      H1596   1.084       .  S
C1590      S1592   1.801       .  S
S1591      H1594   1.407       .  S
S1592      H1593   1.406       .  S
C1597      C1602   1.422       .  A
C1598      C1599   1.407       .  A
C1598      H1607   1.084       .  S
C1599      S1603   1.802       .  S
C1600      C1601   1.407       .  A
C1601      C1602   1.407       .  A
C1601      H1608   1.083       .  S
C1602      S1604   1.801       .  S
S1603      H1606   1.407       .  S
S1604      H1605   1.406       .  S
C1609      C1610   1.405       .  A
C1609      C1614   1.437       .  A
C1610      C1611   1.379       .  A
C1610      H1619   1.082       .  S
C1611      C1612   1.397       .  A
C1611      S1615   1.809       .  S
C1612      C1613   1.378       .  A
C1613      C1614   1.368       .  A
C1613      H1620   1.083       .  S
C1614      S1616   1.821       .  S
S1615      H1618   1.407       .  S
S1616      H1617   1.406       .  S
C1621      C1622   1.415       .  A
C1621      C1626   1.404       .  A
C1622      C1623   1.365       .  A
C1622      H1631   1.083       .  S
C1623      C1624   1.390       .  A
C1623      S1627   1.804       .  S
C1624      C1625   1.408       .  A
C1625      C1626   1.370       .  A
C1625      H1632   1.084       .  S
C1626      S1628   1.809       .  S
S1627      H1630   1.404       .  S
S1628      H1629   1.407       .  S
C1633      C1638   1.400   1_545  A
C1634      C1635   1.372       .  A
C1634      H1643   1.083       .  S
C1635      S1639   1.821       .  S
C1636      C1637   1.404       .  A
C1637      C1638   1.370       .  A
C1637      H1644   1.080       .  S
C1638      S1640   1.810       .  S
S1639      H1642   1.407       .  S
S1640      H1641   1.405   1_565  S
C1645      C1650   1.403       .  A
C1646      C1647   1.373       .  A
C1646      H1655   1.083       .  S
C1647      S1651   1.813       .  S
C1648      C1649   1.404       .  A
C1649      C1650   1.371       .  A
C1649      H1656   1.081       .  S
C1650      S1652   1.813       .  S
S1651      H1654   1.408       .  S
S1652      H1653   1.407       .  S
C1657      C1658   1.400       .  A
C1657      C1662   1.417       .  A
C1658      C1659   1.398       .  A
C1658      H1667   1.084       .  S
C1659      C1660   1.413       .  A
C1659      S1663   1.803       .  S
C1660      C1661   1.400       .  A
C1661      C1662   1.403       .  A
C1661      H1668   1.084       .  S
C1662      S1664   1.803       .  S
S1663      H1666   1.407       .  S
S1664      H1665   1.406       .  S
C1669      C1670   1.414       .  A
C1669      C1674   1.409       .  A
C1670      C1671   1.408       .  A
C1670      H1679   1.083       .  S
C1671      C1672   1.410       .  A
C1671      S1675   1.800       .  S
C1672      C1673   1.411       .  A
C1673      C1674   1.401       .  A
C1673      H1680   1.082       .  S
C1674      S1676   1.807       .  S
S1675      H1678   1.407       .  S
S1676      H1677   1.407       .  S
C1681      C1686   1.423       .  A
C1682      C1683   1.409       .  A
C1682      H1691   1.083       .  S
C1683      S1687   1.800       .  S
C1684      C1685   1.407       .  A
C1685      C1686   1.403       .  A
C1685      H1692   1.082       .  S
C1686      S1688   1.803       .  S
S1687      H1690   1.407       .  S
S1688      H1689   1.406       .  S
C1693      C1694   1.404       .  A
C1694      C1695   1.404       .  A
C1694      H1703   1.084       .  S
C1695      C1696   1.415       .  A
C1695      S1699   1.802       .  S
C1697      C1698   1.407       .  A
C1697      H1704   1.083       .  S
C1698      S1700   1.800       .  S
S1699      H1702   1.407       .  S
S1700      H1701   1.407       .  S
C1705      C1706   1.385       .  A
C1705      C1710   1.431       .  A
C1706      C1707   1.366       .  A
C1706      H1715   1.083       .  S
C1707      C1708   1.421       .  A
C1707      S1711   1.818       .  S
C1708      C1709   1.379       .  A
C1709      C1710   1.364       .  A
C1709      H1716   1.081       .  S
C1710      S1712   1.822       .  S
S1711      H1714   1.407       .  S
S1712      H1713   1.406       .  S
C1717      C1718   1.386       .  A
C1717      C1722   1.427       .  A
C1718      C1719   1.363       .  A
C1718      H1727   1.081       .  S
C1719      C1720   1.417       .  A
C1719      S1723   1.817       .  S
C1720      C1721   1.381       .  A
C1721      C1722   1.357       .  A
C1721      H1728   1.082       .  S
C1722      S1724   1.824       .  S
S1723      H1726   1.407       .  S
S1724      H1725   1.407       .  S
