geometry optimzed in LAMMPS
_audit_creation_date              2020-11-30 
_audit_creation_method            'lammps2cif' 
_symmetry_space_group_name_H-M    'P1' 
_symmetry_Int_Tables_number       1 
_symmetry_cell_setting            triclinic 
loop_ 
_symmetry_equiv_pos_as_xyz 
  x,y,z 
_cell_length_a                    29.71781517 
_cell_length_b                    31.11414951753631 
_cell_length_c                    33.45206449331342 
_cell_angle_alpha                 90.0310925255865 
_cell_angle_beta                  90.67181886343799 
_cell_angle_gamma                 90.9383192616531 
loop_ 
_atom_site_label 
_atom_site_type_symbol 
_atom_site_fract_x 
_atom_site_fract_y 
_atom_site_fract_z 
_atom_site_charge 
N1          N  0.51102758  0.55882784  0.04522120    -0.36300
N2          N  0.43691981  0.50585076  0.01217196    -0.56900
N3          N  0.50191271  0.44445997  0.98366131    -0.36300
N4          N  0.57581978  0.49934251  0.01274835    -0.56900
C5          C  0.47585958  0.58523471  0.05106934     0.27300
C6          C  0.54948558  0.58251893  0.04994810     0.27300
C7          C  0.46372399  0.42855210  0.96629932     0.27300
C8          C  0.53714851  0.42557623  0.96577346     0.27300
C9          C  0.41279901  0.53397993  0.03356657     0.35900
C10         C  0.40805768  0.47373153  0.00143338     0.35900
C11         C  0.60493669  0.52621972  0.03196883     0.35900
C12         C  0.59995184  0.46541205  0.00067826     0.35900
C13         C  0.49217683  0.62594779  0.06087905    -0.21600
C14         C  0.53848834  0.62425307  0.06015999    -0.21600
C15         C  0.47479122  0.39882357  0.93729321    -0.21600
C16         C  0.52107293  0.39700322  0.93689174    -0.21600
C17         C  0.36833392  0.52002022  0.03580726    -0.22600
C18         C  0.36537147  0.48177905  0.01556529    -0.22600
C19         C  0.64783572  0.50936111  0.03194463    -0.22600
C20         C  0.64463716  0.47074076  0.01228816    -0.22600
C21         C  0.42946835  0.57333503  0.04927536    -0.18000
C22         C  0.59425974  0.56742158  0.04640373    -0.18000
C23         C  0.58327474  0.43167876  0.97615016    -0.18000
C24         C  0.41914632  0.43802785  0.97769438    -0.18000
H25         H  0.47273418  0.65403350  0.06786056     0.14900
H26         H  0.56143762  0.65081751  0.06651373     0.14900
H27         H  0.45186128  0.38014779  0.91854943     0.14900
H28         H  0.54063390  0.37659039  0.91775270     0.14900
H29         H  0.34082141  0.53577466  0.05046695     0.13200
H30         H  0.33515296  0.46229512  0.01151603     0.13200
H31         H  0.67845036  0.52372182  0.04412195     0.13200
H32         H  0.67231777  0.44960020  0.00624974     0.13200
H33         H  0.50879084  0.52579600  0.04165761     0.26500
H34         H  0.50363601  0.46307991  0.00935348     0.26500
N35         N  0.50151266  0.97545526  0.55794423    -0.36300
N36         N  0.56554631  0.99043752  0.49335185    -0.56900
N37         N  0.49025437  0.00317183  0.43720038    -0.36300
N38         N  0.42609841  0.99250612  0.50271383    -0.56900
C39         C  0.54055257  0.97751822  0.57944611     0.27300
C40         C  0.46692116  0.97546889  0.58405032     0.27300
C41         C  0.52549499  0.01390219  0.41346912     0.27300
C42         C  0.45183907  0.01553768  0.41834792     0.27300
C43         C  0.59536352  0.98153250  0.52293355     0.35900
C44         C  0.58947654  0.99422869  0.45937658     0.35900
C45         C  0.40204634  0.98149470  0.53544140     0.35900
C46         C  0.39613645  0.99801957  0.47233945     0.35900
C47         C  0.53048652  0.97771175  0.61985371    -0.21600
C48         C  0.48428813  0.97619111  0.62274416    -0.21600
C49         C  0.50909664  0.03220308  0.37855134    -0.21600
C50         C  0.46294557  0.03301241  0.38149203    -0.21600
C51         C  0.63843190  0.97960010  0.50764322    -0.22600
C52         C  0.63468317  0.98738519  0.46741972    -0.22600
C53         C  0.35652658  0.98051792  0.52586732    -0.22600
C54         C  0.35278104  0.99119801  0.48610385    -0.22600
C55         C  0.58515325  0.97866665  0.56405298    -0.18000
C56         C  0.42005728  0.97415730  0.57435344    -0.18000
C57         C  0.40688371  0.01118150  0.43283589    -0.18000
C58         C  0.57212109  0.00758394  0.42187559    -0.18000
H59         H  0.55398972  0.97881106  0.64481194     0.14900
H60         H  0.46563042  0.97611565  0.65033744     0.14900
H61         H  0.52838191  0.04401787  0.35348456     0.14900
H62         H  0.44022927  0.04549021  0.35897921     0.14900
H63         H  0.66950150  0.97400654  0.52387805     0.13200
H64         H  0.66234042  0.98909396  0.44668465     0.13200
H65         H  0.32878140  0.97343104  0.54560781     0.13200
H66         H  0.32158805  0.99384766  0.46933731     0.13200
H67         H  0.49851423  0.97091475  0.52735562     0.26500
H68         H  0.49210225  0.98554222  0.46339997     0.26500
N69         N  0.00943955  0.50037147  0.43584395    -0.36300
N70         N  0.02037589  0.56191715  0.50239017    -0.56900
N71         N  0.02839439  0.49112941  0.55984520    -0.36300
N72         N  0.01328526  0.42926938  0.49389048    -0.56900
C73         C  0.99868075  0.53786230  0.41721135     0.27300
C74         C  0.99446016  0.46705525  0.41247632     0.27300
C75         C  0.02475866  0.52495985  0.58553736     0.27300
C76         C  0.02441878  0.45397557  0.58114365     0.27300
C77         C  0.02357294  0.58943461  0.47111727     0.35900
C78         C  0.03204296  0.58463778  0.53565617     0.35900
C79         C  0.00982519  0.40594640  0.45955555     0.35900
C80         C  0.02155624  0.40096303  0.52393730     0.35900
C81         C  0.97721532  0.52807199  0.38120729    -0.21600
C82         C  0.97479364  0.48371404  0.37814837    -0.21600
C83         C  0.01927408  0.50894031  0.62385339    -0.21600
C84         C  0.01976706  0.46452083  0.62120350    -0.21600
C85         C  0.03828841  0.62949784  0.48460303    -0.22600
C86         C  0.04333971  0.62652581  0.52534904    -0.22600
C87         C  0.01525677  0.36276221  0.46800470    -0.22600
C88         C  0.02243247  0.35958095  0.50842305    -0.22600
C89         C  0.00842496  0.58061565  0.43141483    -0.18000
C90         C  0.99840737  0.42206204  0.42096163    -0.18000
C91         C  0.02589847  0.41094284  0.56555876    -0.18000
C92         C  0.02764307  0.56980802  0.57558578    -0.18000
H93         H  0.96439530  0.55055485  0.35936387     0.14900
H94         H  0.95968395  0.46576301  0.35358452     0.14900
H95         H  0.01589800  0.52732897  0.65109313     0.14900
H96         H  0.01662353  0.44259761  0.64612316     0.14900
H97         H  0.04352604  0.65832325  0.46705206     0.13200
H98         H  0.05316411  0.65253262  0.54528047     0.13200
H99         H  0.01330575  0.33602734  0.44731001     0.13200
H100        H  0.02676002  0.32976092  0.52450791     0.13200
H101        H  0.02903481  0.49768829  0.46157884     0.26500
H102        H  0.03646927  0.49310813  0.52985428     0.26500
N103        N  0.26215631  0.28185934  0.94427548    -0.03200
C104        C  0.29261275  0.30782655  0.92555883    -0.00600
C105        C  0.31776938  0.28369911  0.89928361    -0.23500
C106        C  0.30382716  0.24167383  0.90282587    -0.23700
C107        C  0.27059280  0.24166842  0.93103948    -0.00700
H108        H  0.34725657  0.29463907  0.88326451     0.13100
H109        H  0.31812656  0.21402536  0.88836680     0.13100
N110        N  0.28129085  0.73118807  0.08693422    -0.03200
C111        C  0.31166406  0.70518576  0.10547270    -0.00600
C112        C  0.33158025  0.72673315  0.13760718    -0.23500
C113        C  0.31359765  0.76686020  0.13880505    -0.23700
C114        C  0.28283759  0.76866306  0.10778966    -0.00700
H115        H  0.35962942  0.71612029  0.15579945     0.13100
H116        H  0.32505894  0.79329069  0.15757732     0.13100
N117        N  0.28905380  0.95471908  0.73965974    -0.03200
C118        C  0.32291377  0.93675024  0.71844928    -0.00600
C119        C  0.35136448  0.91446828  0.74374804    -0.23500
C120        C  0.33508229  0.91889445  0.78160750    -0.23700
C121        C  0.29717990  0.94368850  0.77836453    -0.00700
H122        H  0.38239348  0.89901920  0.73583461     0.13100
H123        H  0.35053611  0.90727580  0.80890860     0.13100
O124        O  0.25309424  0.06826520  0.00137770    -0.71500
O125        O  0.27236442  0.95245908  0.02350372    -0.71700
O126        O  0.26971266  0.00021752  0.95718131    -0.71500
O127        O  0.25559287  0.02044480  0.06740480    -0.71600
O128        O  0.18296306  0.01331644  0.06088752    -0.71500
O129        O  0.19934561  0.98143952  0.95130570    -0.71500
O130        O  0.20038220  0.93964173  0.02312970    -0.71500
O131        O  0.18211703  0.05508204  0.98913047    -0.71700
V132        V  0.26115380  0.01008926  0.01216202     1.35200
V133        V  0.19227380  0.99754713  0.00618374     1.35200
C134        C  0.21524857  0.08108482  0.98967866     0.77800
C135        C  0.24002447  0.92684096  0.02972488     0.77800
C136        C  0.23732791  0.98748734  0.93517397     0.77700
C137        C  0.21721341  0.02010629  0.08308246     0.77700
N138        N  0.25439186  0.04460482  0.28139105    -0.03200
C139        C  0.29118814  0.05898438  0.30274657    -0.00600
C140        C  0.31959486  0.08232692  0.27805704    -0.23500
C141        C  0.30034672  0.08232819  0.24068612    -0.23700
C142        C  0.26065819  0.05912665  0.24343678    -0.00700
H143        H  0.35241343  0.09564405  0.28586182     0.13100
H144        H  0.31501301  0.09555313  0.21380591     0.13100
N145        N  0.72372123  0.27716206  0.91357194    -0.03200
C146        C  0.69357346  0.30657344  0.90079600    -0.00600
C147        C  0.67147534  0.29195093  0.86669487    -0.23500
C148        C  0.68770049  0.25185451  0.85873974    -0.23700
C149        C  0.71919774  0.24326422  0.88826464    -0.00700
H150        H  0.64310264  0.30673677  0.85187273     0.13100
H151        H  0.67390631  0.22932561  0.83699332     0.13100
N152        N  0.04016283  0.24938822  0.70405213    -0.03200
C153        C  0.06695354  0.27454139  0.67964916    -0.00600
C154        C  0.10270284  0.29206750  0.70156474    -0.23500
C155        C  0.09611537  0.28172145  0.74051177    -0.23700
C156        C  0.05721840  0.25737030  0.74152068    -0.00700
H157        H  0.12657565  0.31633355  0.69165367     0.13100
H158        H  0.11443501  0.29509182  0.76590147     0.13100
O159        O  0.92701185  0.31405385  0.97256866    -0.71500
O160        O  0.05352534  0.31347945  0.98009548    -0.71700
O161        O  0.99402036  0.30831866  0.91935725    -0.71500
O162        O  0.98686169  0.31580581  0.03415862    -0.71600
O163        O  0.98696373  0.24612823  0.03698004    -0.71500
O164        O  0.98913149  0.23891382  0.92424877    -0.71500
O165        O  0.05288967  0.24363711  0.98071850    -0.71500
O166        O  0.92330715  0.24466519  0.97867656    -0.71700
V167        V  0.99016854  0.31156399  0.97680357     1.35200
V168        V  0.98810269  0.24468670  0.98037600     1.35200
C169        C  0.90334318  0.28012923  0.97356404     0.77800
C170        C  0.07490893  0.27900572  0.97906140     0.77800
C171        C  0.99374685  0.27164926  0.90244956     0.77700
C172        C  0.98583411  0.28164282  0.05506846     0.77700
N173        N  0.96336435  0.28169056  0.26111033    -0.03200
C174        C  0.94885693  0.31373839  0.28642566    -0.00600
C175        C  0.92664602  0.34504571  0.26498367    -0.23500
C176        C  0.92885400  0.33440336  0.22571638    -0.23700
C177        C  0.95185865  0.29645884  0.22358054    -0.00700
H178        H  0.91460021  0.37526637  0.27644308     0.13100
H179        H  0.91804252  0.35413158  0.20085420     0.13100
N180        N  0.97392452  0.74221114  0.29608363    -0.03200
C181        C  0.95295105  0.71568629  0.32327819    -0.00600
C182        C  0.91722633  0.69376920  0.30521379    -0.23500
C183        C  0.91866376  0.70277454  0.26543283    -0.23700
C184        C  0.95422171  0.73100041  0.26040466    -0.00700
H185        H  0.89771441  0.66768806  0.31816300     0.13100
H186        H  0.89973738  0.68619594  0.24208717     0.13100
N187        N  0.70722776  0.04574874  0.26117905    -0.03200
C188        C  0.67509614  0.06066826  0.28625389    -0.00600
C189        C  0.64696862  0.08853344  0.26624862    -0.23500
C190        C  0.66165122  0.09095049  0.22769261    -0.23700
C191        C  0.69833823  0.06453003  0.22526217    -0.00700
H192        H  0.61683844  0.10294165  0.27775288     0.13100
H193        H  0.64537049  0.10766690  0.20327364     0.13100
O194        O  0.98290800  0.07032336  0.25463885    -0.71500
O195        O  0.98315000  0.94714708  0.26598057    -0.71700
O196        O  0.91839847  0.00746518  0.25646368    -0.71500
O197        O  0.04675580  0.00950126  0.26439786    -0.71600
O198        O  0.04257250  0.01746701  0.32873578    -0.71500
O199        O  0.91452394  0.01483613  0.32086950    -0.71500
O200        O  0.97847063  0.95389858  0.33032256    -0.71500
O201        O  0.97786941  0.07742021  0.31885098    -0.71700
V202        V  0.98264030  0.00874943  0.26163917     1.35200
V203        V  0.97851858  0.01558570  0.32344708     1.35200
C204        C  0.98009630  0.09516333  0.28468207     0.77800
C205        C  0.98117109  0.92936848  0.30003951     0.77800
C206        C  0.89462209  0.01204194  0.28732852     0.77700
C207        C  0.06651564  0.01389607  0.29791235     0.77700
N208        N  0.74806899  0.72618423  0.07152559    -0.03200
C209        C  0.71937105  0.70004213  0.09216772    -0.00600
C210        C  0.69619713  0.72391457  0.11997028    -0.23500
C211        C  0.71142383  0.76547227  0.11707309    -0.23700
C212        C  0.74329270  0.76582742  0.08756794    -0.00700
H213        H  0.66738086  0.71339871  0.13710534     0.13100
H214        H  0.69733535  0.79313214  0.13170945     0.13100
N215        N  0.00742457  0.71108090  0.73571953    -0.03200
C216        C  0.99112175  0.67911634  0.71042172    -0.00600
C217        C  0.96570596  0.64927358  0.73120590    -0.23500
C218        C  0.96677490  0.66114731  0.77023504    -0.23700
C219        C  0.99259790  0.69819729  0.77284753    -0.00700
H220        H  0.95121483  0.61958737  0.71957452     0.13100
H221        H  0.95285432  0.64290980  0.79485674     0.13100
N222        N  0.73936684  0.97732366  0.71862519    -0.03200
C223        C  0.69987914  0.98530780  0.69868844    -0.00600
C224        C  0.66506070  0.98986463  0.72530816    -0.23500
C225        C  0.68266443  0.98442411  0.76267367    -0.23700
C226        C  0.72781540  0.97679147  0.75798657    -0.00700
H227        H  0.63003475  0.99539681  0.71802127     0.13100
H228        H  0.66451071  0.98577045  0.79049989     0.13100
O229        O  0.71938280  0.05725369  0.96819835    -0.71500
O230        O  0.73008333  0.94453264  0.00390104    -0.71700
O231        O  0.71585029  0.01850902  0.03970993    -0.71500
O232        O  0.73420459  0.98258146  0.93327299    -0.71600
O233        O  0.80630160  0.99358487  0.94026984    -0.71500
O234        O  0.78777155  0.02843256  0.04841450    -0.71500
O235        O  0.80230873  0.95267727  0.01187959    -0.71500
O236        O  0.79120974  0.06858054  0.97571699    -0.71700
V237        V  0.72646560  0.00108546  0.98653260     1.35200
V238        V  0.79570173  0.01071095  0.99411635     1.35200
C239        C  0.75318622  0.08161541  0.96378918     0.77800
C240        C  0.76736977  0.92885988  0.01345404     0.77800
C241        C  0.74850100  0.02800321  0.06278632     0.77700
C242        C  0.77305260  0.98263974  0.91838735     0.77700
O243        O  0.01047363  0.04433603  0.73018405    -0.71500
O244        O  0.02042473  0.92095882  0.73919816    -0.71700
O245        O  0.07925227  0.98824773  0.73693602    -0.71500
O246        O  0.95145550  0.97636717  0.73293593    -0.71600
O247        O  0.95293491  0.97912568  0.66813739    -0.71500
O248        O  0.08138440  0.97485530  0.67330051    -0.71500
O249        O  0.01391971  0.91558837  0.67482907    -0.71500
O250        O  0.02090573  0.03906757  0.66640515    -0.71700
V251        V  0.01535169  0.98251270  0.73365682     1.35200
V252        V  0.01722296  0.97741211  0.67178763     1.35200
C253        C  0.01613373  0.06306915  0.69676278     0.77800
C254        C  0.01745819  0.89691621  0.70846147     0.77800
C255        C  0.10219440  0.98098112  0.70612072     0.77700
C256        C  0.93029099  0.97604221  0.69989198     0.77700
O257        O  0.01708391  0.74892233  0.96171175    -0.71500
O258        O  0.01419378  0.75615715  0.07447970    -0.71700
O259        O  0.08109844  0.75132528  0.02103272    -0.71500
O260        O  0.95146716  0.75094081  0.01717358    -0.71600
O261        O  0.95176270  0.68119610  0.01991145    -0.71500
O262        O  0.07870062  0.68179354  0.02616595    -0.71500
O263        O  0.01187394  0.68662544  0.07943805    -0.71500
O264        O  0.01804098  0.67924508  0.96444607    -0.71700
V265        V  0.01620819  0.75044735  0.01834333     1.35200
V266        V  0.01530612  0.68355050  0.02205778     1.35200
C267        C  0.01712344  0.71342508  0.94351364     0.77800
C268        C  0.01014624  0.72327193  0.09617524     0.77800
C269        C  0.10159562  0.71622040  0.02679552     0.77700
C270        C  0.92990792  0.71554148  0.02056644     0.77700
C271        C  0.81027891  0.93803414  0.72039250    -0.26000
C272        C  0.78478342  0.97161571  0.70413721    -0.14100
C273        C  0.80771351  0.00397223  0.68201556     0.36500
C274        C  0.85491491  0.00338417  0.67902230    -0.25500
C275        C  0.88034429  0.97209751  0.69879946    -0.14700
C276        C  0.85740116  0.93854834  0.71901445     0.37600
N277        N  0.88103825  0.90497564  0.73915867    -0.88900
H278        H  0.79344739  0.91281251  0.73712834     0.18700
H279        H  0.87202285  0.02912972  0.66317355     0.18700
N280        N  0.78467300  0.03947735  0.66465300    -0.88000
H281        H  0.90097009  0.91853159  0.76194950     0.36100
H282        H  0.90198870  0.89012750  0.71868886     0.41200
H283        H  0.76531496  0.05406216  0.68656462     0.40800
H284        H  0.76376584  0.02785479  0.64172211     0.35700
C285        C  0.74645519  0.93514239  0.81801010    -0.26000
C286        C  0.75724897  0.97022159  0.79334460    -0.14100
C287        C  0.78371357  0.00446658  0.80920302     0.36500
C288        C  0.79428224  0.00521925  0.85017217    -0.25500
C289        C  0.77776347  0.97294494  0.87561434    -0.14700
C290        C  0.75593481  0.93655952  0.85910955     0.37600
N291        N  0.74061032  0.90242363  0.88453187    -0.88900
H292        H  0.72609090  0.90873919  0.80617648     0.18700
H293        H  0.81107805  0.03340187  0.86274655     0.18700
N294        N  0.79669678  0.04064430  0.78529383    -0.88000
H295        H  0.75503028  0.87391158  0.87475355     0.36100
H296        H  0.70569799  0.89927065  0.88107615     0.41200
H297        H  0.76786176  0.05410737  0.77263968     0.40800
H298        H  0.81709642  0.02973340  0.76234853     0.35700
C299        C  0.04442604  0.68946223  0.87601539    -0.26000
C300        C  0.01423505  0.71312737  0.89883732    -0.14100
C301        C  0.98128443  0.73748131  0.87860059     0.36500
C302        C  0.97834629  0.73702834  0.83643899    -0.25500
C303        C  0.00771877  0.71251185  0.81351053    -0.14700
C304        C  0.04122526  0.68877025  0.83383020     0.37600
N305        N  0.07045025  0.66175353  0.81161510    -0.88900
H306        H  0.07003627  0.67074435  0.89095377     0.18700
H307        H  0.95082951  0.75338629  0.82172359     0.18700
N308        N  0.94869456  0.76052668  0.90098222    -0.88000
H309        H  0.06586764  0.63016417  0.82157984     0.36100
H310        H  0.10365911  0.67120485  0.81812253     0.41200
H311        H  0.91672676  0.74840462  0.89325640     0.40800
H312        H  0.95038597  0.79277845  0.89233613     0.35700
C313        C  0.98944123  0.77571576  0.69475723    -0.26000
C314        C  0.01626802  0.75617846  0.72452829    -0.14100
C315        C  0.04718785  0.78339379  0.74581281     0.36500
C316        C  0.04628791  0.82862783  0.74059003    -0.25500
C317        C  0.01806121  0.84822945  0.71200998    -0.14700
C318        C  0.99095681  0.82054359  0.68756052     0.37600
N319        N  0.96361451  0.83692965  0.65568824    -0.88900
H320        H  0.96601943  0.75604546  0.67739478     0.18700
H321        H  0.06921242  0.84861164  0.75820861     0.18700
N322        N  0.08202077  0.76626701  0.77084662    -0.88000
H323        H  0.98465944  0.85160302  0.63473714     0.36100
H324        H  0.94216687  0.85999440  0.66716799     0.41200
H325        H  0.08305928  0.73289074  0.76832591     0.40800
H326        H  0.07514697  0.77434177  0.80045548     0.35700
C327        C  0.84905745  0.73249773  0.00510188    -0.26000
C328        C  0.88128127  0.71352806  0.03001059    -0.14100
C329        C  0.86697326  0.69221819  0.06498204     0.36500
C330        C  0.82155636  0.69278255  0.07589889    -0.25500
C331        C  0.78943986  0.71391674  0.05244822    -0.14700
C332        C  0.80315887  0.73181018  0.01529491     0.37600
N333        N  0.77141722  0.74811960  0.98671646    -0.88900
H334        H  0.85948763  0.74747492  0.97739875     0.18700
H335        H  0.81182693  0.67929621  0.10443731     0.18700
N336        N  0.89906606  0.67205071  0.09085290    -0.88000
H337        H  0.77815449  0.78091522  0.98283158     0.36100
H338        H  0.73852936  0.74414848  0.99680751     0.41200
H339        H  0.88940888  0.63978682  0.09409238     0.40800
H340        H  0.89764888  0.68670716  0.11894082     0.35700
C341        C  0.79936159  0.87057962  0.05586631    -0.26000
C342        C  0.76770671  0.88411728  0.02725625    -0.14100
C343        C  0.73162046  0.85643283  0.01616022     0.36500
C344        C  0.72458159  0.81850998  0.03707832    -0.25500
C345        C  0.75509838  0.80544933  0.06643663    -0.14700
C346        C  0.79375570  0.83089342  0.07533002     0.37600
N347        N  0.82691366  0.81824500  0.10440577    -0.88900
H348        H  0.82734387  0.89154983  0.06434636     0.18700
H349        H  0.69520698  0.79868653  0.02992319     0.18700
N350        N  0.70172838  0.86689224  0.98375209    -0.88000
H351        H  0.85707559  0.81446439  0.08915021     0.36100
H352        H  0.81895122  0.78833960  0.11682028     0.41200
H353        H  0.66898110  0.86788278  0.99476768     0.40800
H354        H  0.70292520  0.84220922  0.96257587     0.35700
C355        C  0.77783106  0.05810691  0.29841789    -0.26000
C356        C  0.75162396  0.03166676  0.27298081    -0.14100
C357        C  0.77212834  0.99632784  0.25450346     0.36500
C358        C  0.81863132  0.98946056  0.25999483    -0.25500
C359        C  0.84503559  0.01702829  0.28428629    -0.14700
C360        C  0.82409260  0.05126215  0.30403187     0.37600
N361        N  0.85033842  0.08090147  0.32781486    -0.88900
H362        H  0.76278539  0.08587920  0.31211894     0.18700
H363        H  0.83420236  0.96279550  0.24492346     0.18700
N364        N  0.74590241  0.96750605  0.22999813    -0.88000
H365        H  0.83687148  0.08137600  0.35653281     0.36100
H366        H  0.84703615  0.11157277  0.31545267     0.41200
H367        H  0.74827839  0.93669952  0.24222609     0.40800
H368        H  0.76024245  0.96685877  0.20161870     0.35700
C369        C  0.70264972  0.01458307  0.12279235    -0.26000
C370        C  0.73983217  0.03579881  0.10580723    -0.14100
C371        C  0.76648491  0.06366180  0.12998785     0.36500
C372        C  0.75422565  0.07116367  0.17002634    -0.25500
C373        C  0.71599303  0.05090392  0.18618608    -0.14700
C374        C  0.69047635  0.02188385  0.16228621     0.37600
N375        N  0.65150962  0.99972128  0.17724205    -0.88900
H376        H  0.68230822  0.99234605  0.10501702     0.18700
H377        H  0.77359948  0.09394729  0.18801906     0.18700
N378        N  0.80467634  0.08573941  0.11363604    -0.88000
H379        H  0.62775168  0.02224709  0.18572080     0.36100
H380        H  0.66104879  0.98208462  0.20240757     0.41200
H381        H  0.83293178  0.07790904  0.13088984     0.40800
H382        H  0.79963816  0.11877873  0.11646622     0.35700
C383        C  0.01781744  0.85744647  0.28863286    -0.26000
C384        C  0.98164294  0.88098946  0.30387884    -0.14100
C385        C  0.94536067  0.85752204  0.32080696     0.36500
C386        C  0.94480304  0.81211307  0.32020991    -0.25500
C387        C  0.98019552  0.78835567  0.30362521    -0.14700
C388        C  0.01782176  0.81189783  0.28901984     0.37600
N389        N  0.05691660  0.79044764  0.27513426    -0.88900
H390        H  0.04642384  0.87463311  0.27623637     0.18700
H391        H  0.91534980  0.79518797  0.33127309     0.18700
N392        N  0.90743901  0.87899055  0.33707143    -0.88000
H393        H  0.04815414  0.77147531  0.25050971     0.36100
H394        H  0.06836532  0.77028534  0.29794972     0.41200
H395        H  0.89354536  0.89850277  0.31484338     0.40800
H396        H  0.91876772  0.89861139  0.36060315     0.35700
C397        C  0.01689397  0.69888557  0.16750950    -0.26000
C398        C  0.00064545  0.72849009  0.13948269    -0.14100
C399        C  0.97309149  0.76222307  0.15290060     0.36500
C400        C  0.96078891  0.76461548  0.19328420    -0.25500
C401        C  0.97593935  0.73428735  0.22088540    -0.14700
C402        C  0.00496779  0.70173417  0.20802820     0.37600
N403        N  0.02115031  0.67061566  0.23597964    -0.88900
H404        H  0.03829664  0.67308581  0.15786935     0.18700
H405        H  0.93766054  0.78911409  0.20272225     0.18700
N406        N  0.95517337  0.79270344  0.12516320    -0.88000
H407        H  0.05632598  0.67202255  0.23592752     0.36100
H408        H  0.01087926  0.64012091  0.22600342     0.41200
H409        H  0.96509978  0.82348095  0.13465947     0.40800
H410        H  0.92010435  0.79055176  0.12638213     0.35700
C411        C  0.95473662  0.16901792  0.30713237    -0.26000
C412        C  0.97886192  0.14377324  0.28001072    -0.14100
C413        C  0.00069622  0.16557465  0.24839347     0.36500
C414        C  0.99844521  0.21097100  0.24476118    -0.25500
C415        C  0.97256110  0.23629443  0.27069960    -0.14700
C416        C  0.95044716  0.21418494  0.30228253     0.37600
N417        N  0.92152894  0.23684565  0.32856201    -0.88900
H418        H  0.93714492  0.15331142  0.33141919     0.18700
H419        H  0.01657826  0.22623479  0.22068328     0.18700
N420        N  0.02546539  0.14177607  0.21963315    -0.88000
H421        H  0.93325376  0.23246727  0.35783987     0.36100
H422        H  0.88927661  0.22305655  0.32625879     0.41200
H423        H  0.05865618  0.15343080  0.21992912     0.40800
H424        H  0.01156747  0.14781686  0.19136030     0.35700
C425        C  0.00152817  0.30922004  0.16589343    -0.26000
C426        C  0.96856071  0.28266102  0.18377935    -0.14100
C427        C  0.94374380  0.25357198  0.15918059     0.36500
C428        C  0.95123638  0.25312593  0.11764633    -0.25500
C429        C  0.98177107  0.28201334  0.09951436    -0.14700
C430        C  0.00804012  0.30951047  0.12434329     0.37600
N431        N  0.04145951  0.33811953  0.10826783    -0.88900
H432        H  0.02023335  0.33225865  0.18418204     0.18700
H433        H  0.93130483  0.23130651  0.09908451     0.18700
N434        N  0.90911086  0.22575427  0.17483699    -0.88000
H435        H  0.02567310  0.35971772  0.08898867     0.36100
H436        H  0.06413882  0.32002735  0.09184540     0.41200
H437        H  0.90643578  0.22904409  0.20576156     0.40800
H438        H  0.91882262  0.19409484  0.16973512     0.35700
C439        C  0.00474472  0.28916609  0.78966422    -0.26000
C440        C  0.03195948  0.25438399  0.77932180    -0.14100
C441        C  0.04216471  0.22324929  0.80857800     0.36500
C442        C  0.02650920  0.22868239  0.84762462    -0.25500
C443        C  0.00265588  0.26546389  0.85902590    -0.14700
C444        C  0.99035484  0.29522125  0.82909294     0.37600
N445        N  0.96343199  0.33174980  0.83770113    -0.88900
H446        H  0.99698141  0.31331012  0.76738189     0.18700
H447        H  0.03571396  0.20503624  0.86991865     0.18700
N448        N  0.06985077  0.18686674  0.80031602    -0.88000
H449        H  0.98096524  0.35163464  0.85787010     0.36100
H450        H  0.93364737  0.32092938  0.85098134     0.41200
H451        H  0.07944901  0.18605955  0.77041739     0.40800
H452        H  0.05025324  0.15914651  0.80494660     0.35700
C453        C  0.98836412  0.13746593  0.71506615    -0.26000
C454        C  0.01833871  0.11180437  0.69350107    -0.14100
C455        C  0.05122382  0.13357178  0.67014616     0.36500
C456        C  0.05558965  0.17892265  0.67136047    -0.25500
C457        C  0.02720681  0.20460163  0.69469511    -0.14700
C458        C  0.99175547  0.18311139  0.71498508     0.37600
N459        N  0.95895597  0.20754929  0.73569223    -0.88900
H460        H  0.96199500  0.12199781  0.73222939     0.18700
H461        H  0.08314892  0.19398945  0.65542889     0.18700
N462        N  0.08249203  0.11040283  0.64644682    -0.88000
H463        H  0.95839300  0.19721680  0.76542091     0.36100
H464        H  0.92742001  0.20034675  0.72299183     0.41200
H465        H  0.06449389  0.09297109  0.62466889     0.40800
H466        H  0.09966855  0.08894898  0.66494311     0.35700
C467        C  0.77711234  0.25495850  0.96688080    -0.26000
C468        C  0.76371267  0.28506760  0.93779881    -0.14100
C469        C  0.79469956  0.31721437  0.92625854     0.36500
C470        C  0.83912970  0.31636172  0.94063950    -0.25500
C471        C  0.85411184  0.28304884  0.96565333    -0.14700
C472        C  0.82232276  0.25297292  0.98025301     0.37600
N473        N  0.83619309  0.21995539  0.00752446    -0.88900
H474        H  0.75301900  0.23082739  0.97670178     0.18700
H475        H  0.86282133  0.34031486  0.92967670     0.18700
N476        N  0.78207952  0.34894226  0.89743046    -0.88000
H477        H  0.80886663  0.20001037  0.01487155     0.36100
H478        H  0.84693800  0.23500661  0.03399339     0.41200
H479        H  0.80322374  0.34629868  0.87282018     0.40800
H480        H  0.78748286  0.37926952  0.91024670     0.35700
C481        C  0.77297131  0.18480998  0.90485551    -0.26000
C482        C  0.72859559  0.19916389  0.90123697    -0.14100
C483        C  0.69306541  0.17411699  0.91659007     0.36500
C484        C  0.70240225  0.13661923  0.93738392    -0.25500
C485        C  0.74681601  0.12301632  0.94322071    -0.14700
C486        C  0.78243838  0.14693081  0.92605405     0.37600
N487        N  0.82796453  0.13303961  0.92996383    -0.88900
H488        H  0.80039753  0.20417621  0.89306740     0.18700
H489        H  0.67432644  0.11835724  0.94945349     0.18700
N490        N  0.64731896  0.18748336  0.91232854    -0.88000
H491        H  0.84679704  0.15763208  0.94381516     0.36100
H492        H  0.84066669  0.12865950  0.90126079     0.41200
H493        H  0.63374693  0.19054457  0.94085520     0.40800
H494        H  0.62925801  0.16322241  0.89720506     0.35700
C495        C  0.19031026  0.99359993  0.27882176    -0.26000
C496        C  0.21083843  0.03045542  0.29575149    -0.14100
C497        C  0.18377196  0.05874068  0.31792986     0.36500
C498        C  0.13727007  0.05083093  0.32094758    -0.25500
C499        C  0.11639271  0.01635097  0.30057289    -0.14700
C500        C  0.14339342  0.98692312  0.28018453     0.37600
N501        N  0.12313401  0.95077273  0.25999553    -0.88900
H502        H  0.21042958  0.97143564  0.26203362     0.18700
H503        H  0.11685109  0.07372094  0.33671394     0.18700
N504        N  0.20192941  0.09758632  0.33498855    -0.88000
H505        H  0.13722283  0.92284522  0.27173504     0.36100
H506        H  0.13156021  0.95267772  0.22977687     0.41200
H507        H  0.21670017  0.11588161  0.31229622     0.40800
H508        H  0.22667199  0.08956892  0.35597655     0.35700
C509        C  0.20095330  0.06420545  0.14330637    -0.26000
C510        C  0.21451442  0.02514544  0.12675016    -0.14100
C511        C  0.23550602  0.99457241  0.15139975     0.36500
C512        C  0.24553786  0.00452083  0.19139539    -0.25500
C513        C  0.23551584  0.04490436  0.20719308    -0.14700
C514        C  0.21184928  0.07447742  0.18334367     0.37600
N515        N  0.20144887  0.11592757  0.19899593    -0.88900
H516        H  0.18545307  0.08815183  0.12434714     0.18700
H517        H  0.26489585  0.98205514  0.20907495     0.18700
N518        N  0.24945621  0.95443438  0.13498327    -0.88000
H519        H  0.16662485  0.11975012  0.19672241     0.36100
H520        H  0.21685182  0.13918982  0.18096456     0.41200
H521        H  0.23440299  0.92963141  0.15141860     0.40800
H522        H  0.28433816  0.95234707  0.13871561     0.35700
C523        C  0.23539782  0.94245639  0.82856214    -0.26000
C524        C  0.27507203  0.96148248  0.81395153    -0.14100
C525        C  0.29787113  0.99301123  0.83713984     0.36500
C526        C  0.28271886  0.00260855  0.87529833    -0.25500
C527        C  0.24544752  0.98093374  0.89179826    -0.14700
C528        C  0.22015762  0.95204659  0.86720275     0.37600
N529        N  0.18036081  0.93056431  0.88109366    -0.88900
H530        H  0.21757716  0.91840945  0.81075284     0.18700
H531        H  0.30168557  0.02607768  0.89288341     0.18700
N532        N  0.33752173  0.01485360  0.82314500    -0.88000
H533        H  0.15685341  0.95379630  0.88853455     0.36100
H534        H  0.18855724  0.91296300  0.90668865     0.41200
H535        H  0.32993095  0.02957276  0.79587398     0.40800
H536        H  0.36265933  0.99239718  0.81846933     0.35700
C537        C  0.21957646  0.93445746  0.70376262    -0.26000
C538        C  0.24503377  0.96584480  0.72446436    -0.14100
C539        C  0.22400222  0.00411643  0.73600334     0.36500
C540        C  0.17764339  0.00943450  0.72848881    -0.25500
C541        C  0.15185282  0.97718778  0.70915003    -0.14700
C542        C  0.17346178  0.93950922  0.69630555     0.37600
N543        N  0.14880796  0.90448893  0.67821994    -0.88900
H544        H  0.23512632  0.90447225  0.69568472     0.18700
H545        H  0.16156376  0.03846519  0.73853157     0.18700
N546        N  0.24950375  0.03731212  0.75590079    -0.88000
H547        H  0.13403084  0.91526993  0.65165687     0.36100
H548        H  0.12336229  0.89461967  0.69767951     0.41200
H549        H  0.23446296  0.04327820  0.78341081     0.40800
H550        H  0.24731288  0.06526837  0.73871445     0.35700
C551        C  0.30348234  0.83156915  0.06860978    -0.26000
C552        C  0.27021011  0.80980804  0.09010564    -0.14100
C553        C  0.22628758  0.82604547  0.09148337     0.36500
C554        C  0.21610274  0.86321746  0.06983373    -0.25500
C555        C  0.24936297  0.88457166  0.04736298    -0.14700
C556        C  0.29340617  0.86818342  0.04668527     0.37600
N557        N  0.32798924  0.88810322  0.02322335    -0.88900
H558        H  0.33723442  0.81889941  0.06743960     0.18700
H559        H  0.18257566  0.87619107  0.07166588     0.18700
N560        N  0.19213357  0.80630735  0.11546302    -0.88000
H561        H  0.33963748  0.86536333  0.00294890     0.36100
H562        H  0.35469008  0.89682531  0.04235250     0.41200
H563        H  0.20391132  0.80544039  0.14501964     0.40800
H564        H  0.18688758  0.77473850  0.10577177     0.35700
C565        C  0.21083411  0.69000007  0.08142924    -0.26000
C566        C  0.24177603  0.71836261  0.06366711    -0.14100
C567        C  0.22758298  0.74169832  0.02924599     0.36500
C568        C  0.18199398  0.74034306  0.01716065    -0.25500
C569        C  0.15042225  0.71468130  0.03727365    -0.14700
C570        C  0.16562601  0.68792891  0.06865281     0.37600
N571        N  0.13453283  0.66072062  0.08962327    -0.88900
H572        H  0.22090453  0.67210207  0.10773571     0.18700
H573        H  0.17116332  0.75969670  0.99201813     0.18700
N574        N  0.25843178  0.76659511  0.00560493    -0.88000
H575        H  0.13496375  0.66984310  0.11971901     0.36100
H576        H  0.14590274  0.62915999  0.08786004     0.41200
H577        H  0.29098023  0.76560837  0.01750078     0.40800
H578        H  0.24818994  0.79854206  0.00589674     0.35700
C579        C  0.23037528  0.15621525  0.00222166    -0.26000
C580        C  0.21266795  0.12529171  0.97597635    -0.14100
C581        C  0.20921317  0.13424556  0.93477377     0.36500
C582        C  0.22670801  0.17347401  0.92032451    -0.25500
C583        C  0.24778923  0.20288725  0.94657061    -0.14700
C584        C  0.24890410  0.19438368  0.98781541     0.37600
N585        N  0.27277545  0.22234731  0.01485282    -0.88900
H586        H  0.23440731  0.14864234  0.03370807     0.18700
H587        H  0.22573119  0.18031982  0.88857200     0.18700
N588        N  0.19192032  0.10199768  0.90764730    -0.88000
H589        H  0.29968965  0.20536856  0.02711877     0.36100
H590        H  0.25118377  0.22959012  0.03822600     0.41200
H591        H  0.19300209  0.11319588  0.87820125     0.40800
H592        H  0.15797680  0.09682219  0.91428593     0.35700
C593        C  0.18365864  0.28201631  0.92217422    -0.26000
C594        C  0.21580446  0.29246345  0.95194317    -0.14100
C595        C  0.20063249  0.30199976  0.99066361     0.36500
C596        C  0.15457011  0.29651261  0.99982327    -0.25500
C597        C  0.12361337  0.28131481  0.97081253    -0.14700
C598        C  0.13819335  0.27599153  0.93132365     0.37600
N599        N  0.10675225  0.26458902  0.90022477    -0.88900
H600        H  0.19469941  0.27528347  0.89207867     0.18700
H601        H  0.14304635  0.30384071  0.02963247     0.18700
N602        N  0.23152647  0.31794088  0.02041582    -0.88000
H603        H  0.11736556  0.23604405  0.88709814     0.36100
H604        H  0.10783690  0.28868815  0.87845151     0.41200
H605        H  0.22134374  0.34871356  0.02849596     0.40800
H606        H  0.22872267  0.29858603  0.04578974     0.35700
C607        C  0.05616738  0.61598588  0.63425132    -0.26000
C608        C  0.02111409  0.60372310  0.60763633    -0.14100
C609        C  0.97956917  0.62509099  0.61084173     0.36500
C610        C  0.97316257  0.65576791  0.64112862    -0.25500
C611        C  0.00685724  0.66581762  0.66977366    -0.14700
C612        C  0.04930599  0.64621554  0.66526263     0.37600
N613        N  0.08509442  0.65427708  0.69344559    -0.88900
H614        H  0.08854636  0.60075845  0.63190422     0.18700
H615        H  0.93988514  0.66892047  0.64465067     0.18700
N616        N  0.94221860  0.61442403  0.58502653    -0.88000
H617        H  0.07429645  0.64494397  0.72182113     0.36100
H618        H  0.09176163  0.68737442  0.69398659     0.41200
H619        H  0.93531469  0.58147727  0.58751505     0.40800
H620        H  0.95117783  0.62110383  0.55554955     0.35700
C621        C  0.00943289  0.32161820  0.64519605    -0.26000
C622        C  0.05132771  0.30100789  0.64446951    -0.14100
C623        C  0.08320354  0.31558237  0.61615978     0.36500
C624        C  0.07446692  0.35161868  0.59195773    -0.25500
C625        C  0.03355288  0.37347928  0.59381593    -0.14700
C626        C  0.99997805  0.35707679  0.61969589     0.37600
N627        N  0.95677616  0.37704750  0.62060373    -0.88900
H628        H  0.98486990  0.31150769  0.66708500     0.18700
H629        H  0.10003032  0.36268220  0.57134710     0.18700
N630        N  0.12557434  0.29460129  0.61293361    -0.88000
H631        H  0.93593957  0.36156891  0.64124843     0.36100
H632        H  0.94163139  0.37266558  0.59249732     0.41200
H633        H  0.15119071  0.31737104  0.61841099     0.40800
H634        H  0.12869469  0.28384371  0.58350032     0.35700
C635        C  0.96507409  0.64799870  0.41626737    -0.26000
C636        C  0.99854382  0.61898627  0.40499544    -0.14100
C637        C  0.02299058  0.62801897  0.36997590     0.36500
C638        C  0.01176986  0.66374428  0.34578959    -0.25500
C639        C  0.97625222  0.69110000  0.35579359    -0.14700
C640        C  0.95387109  0.68355427  0.39214496     0.37600
N641        N  0.91808969  0.71102784  0.40370941    -0.88900
H642        H  0.94660330  0.64233106  0.44355500     0.18700
H643        H  0.02886697  0.66830372  0.31768103     0.18700
N644        N  0.05873523  0.60050421  0.35849192    -0.88000
H645        H  0.92633012  0.72404912  0.43172469     0.36100
H646        H  0.88890469  0.69215283  0.40674100     0.41200
H647        H  0.08814219  0.61924434  0.35646699     0.40800
H648        H  0.05111658  0.58829586  0.33004293     0.35700
C649        C  0.02033782  0.37506558  0.36220816    -0.26000
C650        C  0.98703562  0.38920460  0.38860787    -0.14100
C651        C  0.94375374  0.36975441  0.38557550     0.36500
C652        C  0.93402303  0.33924352  0.35538041    -0.25500
C653        C  0.96629376  0.32714818  0.32703737    -0.14700
C654        C  0.01037075  0.34482681  0.33155244     0.49600
N655        N  0.04494101  0.33472355  0.30377429    -0.88900
H656        H  0.05404836  0.38866443  0.36463028     0.18700
H657        H  0.89963145  0.32757847  0.35188096     0.18700
N658        N  0.90840366  0.38175116  0.41187343    -0.88000
H659        H  0.03450072  0.34408732  0.27517389     0.36100
H660        H  0.04886584  0.30139148  0.30377108     0.41200
H661        H  0.90363685  0.41484512  0.40917689     0.40800
H662        H  0.91857732  0.37524625  0.44123093     0.35700
C663        C  0.64589268  0.94375022  0.60538993    -0.26000
C664        C  0.62378842  0.98118539  0.59311338    -0.14100
C665        C  0.63800617  0.02112998  0.60925031     0.36500
C666        C  0.67046859  0.02248989  0.63985991    -0.25500
C667        C  0.68909049  0.98466060  0.65539916    -0.14700
C668        C  0.67837629  0.94518381  0.63634725     0.37600
N669        N  0.69765311  0.90579913  0.64982472    -0.88900
H670        H  0.63621572  0.91307463  0.59227801     0.18700
H671        H  0.67763774  0.05293713  0.65458154     0.18700
N672        N  0.61820871  0.06058122  0.59652110    -0.88000
H673        H  0.68941513  0.90111516  0.67981214     0.36100
H674        H  0.73265103  0.90896732  0.64796273     0.41200
H675        H  0.58363387  0.05885173  0.60180407     0.40800
H676        H  0.62301560  0.06382272  0.56575673     0.35700
C677        C  0.36937750  0.99825620  0.62972997    -0.26000
C678        C  0.38794704  0.96464581  0.60754913    -0.14100
C679        C  0.37877596  0.92193439  0.61898783     0.36500
C680        C  0.35286817  0.91339070  0.65304539    -0.25500
C681        C  0.33634877  0.94688158  0.67670528    -0.14700
C682        C  0.34418662  0.98970587  0.66443908     0.37600
N683        N  0.32984184  0.02458526  0.68885980    -0.88900
H684        H  0.37659477  0.03125887  0.62134000     0.18700
H685        H  0.34809661  0.88034582  0.66255288     0.18700
N686        N  0.39752412  0.88716065  0.59700783    -0.88000
H687        H  0.30919035  0.04416649  0.67142471     0.36100
H688        H  0.35830125  0.04266838  0.69747943     0.41200
H689        H  0.37104526  0.86716332  0.58715061     0.40800
H690        H  0.41771406  0.86947329  0.61658087     0.35700
C691        C  0.61518027  0.98900582  0.36027037    -0.26000
C692        C  0.60539915  0.01896555  0.39016502    -0.14100
C693        C  0.62627503  0.06006083  0.38897186     0.36500
C694        C  0.65409138  0.07121604  0.35690737    -0.25500
C695        C  0.66150201  0.04235775  0.32542150    -0.14700
C696        C  0.64255633  0.00037599  0.32785226     0.37600
N697        N  0.64762663  0.96976997  0.29634558    -0.88900
H698        H  0.59962856  0.95727894  0.36112506     0.18700
H699        H  0.66733832  0.10381105  0.35503663     0.18700
N700        N  0.61790817  0.09176737  0.41892565    -0.88000
H701        H  0.68195573  0.96459822  0.29259925     0.36100
H702        H  0.63445443  0.98277909  0.26999804     0.41200
H703        H  0.62798737  0.07960141  0.44667136     0.40800
H704        H  0.58328986  0.09712627  0.41966066     0.35700
C705        C  0.32796958  0.07756533  0.36759488    -0.26000
C706        C  0.30690624  0.04587363  0.34347423    -0.14100
C707        C  0.31354692  0.00233638  0.35321955     0.36500
C708        C  0.34456447  0.99135546  0.38379956    -0.25500
C709        C  0.36886406  0.02329418  0.40515097    -0.14700
C710        C  0.35844356  0.06681916  0.39816868     0.37600
N711        N  0.37959855  0.10084110  0.42075391    -0.88900
H712        H  0.32318532  0.11122367  0.36065398     0.18700
H713        H  0.35129177  0.95779804  0.38957822     0.18700
N714        N  0.29126368  0.96920285  0.33042561    -0.88000
H715        H  0.41435911  0.09979899  0.41671658     0.36100
H716        H  0.37300966  0.09560874  0.45100467     0.41200
H717        H  0.31578001  0.94991304  0.31774321     0.40800
H718        H  0.27249002  0.95020751  0.35013418     0.35700
C719        C  0.65307280  0.59618337  0.09394182    -0.26000
C720        C  0.63252704  0.59745766  0.05603978    -0.14100
C721        C  0.64906421  0.62682304  0.02732956     0.36500
C722        C  0.68215966  0.65735189  0.03831792    -0.25500
C723        C  0.69966252  0.65882981  0.07746973    -0.14700
C724        C  0.68678904  0.62615999  0.10473139     0.37600
N725        N  0.70736302  0.62280357  0.14355618    -0.88900
H726        H  0.64213444  0.57234937  0.11550939     0.18700
H727        H  0.69162961  0.68198303  0.01701569     0.18700
N728        N  0.63179844  0.62701255  0.98717878    -0.88000
H729        H  0.70082765  0.65027267  0.16025082     0.36100
H730        H  0.74215817  0.62081665  0.13988078     0.41200
H731        H  0.59718078  0.63225158  0.98798917     0.40800
H732        H  0.63692870  0.59668349  0.97470931     0.35700
C733        C  0.66716283  0.38113589  0.90619399    -0.26000
C734        C  0.67488587  0.34163117  0.92510209    -0.14100
C735        C  0.65445547  0.33315069  0.96242503     0.36500
C736        C  0.62576443  0.36342455  0.97902582    -0.25500
C737        C  0.61647481  0.40183350  0.95899888    -0.14700
C738        C  0.63826839  0.41120178  0.92273095     0.37600
N739        N  0.63024301  0.45030548  0.90144332    -0.88900
H740        H  0.68177402  0.38761560  0.87723178     0.18700
H741        H  0.60933222  0.35631206  0.00706967     0.18700
N742        N  0.65969731  0.29309902  0.98287927    -0.88000
H743        H  0.63923627  0.47611283  0.92005597     0.36100
H744        H  0.59581438  0.45200235  0.89498905     0.41200
H745        H  0.69360827  0.28967643  0.99041073     0.40800
H746        H  0.64964475  0.26807977  0.96375995     0.35700
C747        C  0.35243505  0.63695214  0.11628024    -0.26000
C748        C  0.33259239  0.66572942  0.08897836    -0.14100
C749        C  0.34256926  0.66141529  0.04798642     0.36500
C750        C  0.37354386  0.63058600  0.03559611    -0.25500
C751        C  0.39567977  0.60449975  0.06344148    -0.14700
C752        C  0.38411668  0.60703186  0.10405232     0.37600
N753        N  0.40475375  0.58013468  0.13351731    -0.88900
H754        H  0.34518362  0.63936813  0.14786833     0.18700
H755        H  0.38155532  0.62800396  0.00417000     0.18700
N756        N  0.32356219  0.68965893  0.01895180    -0.88000
H757        H  0.39843649  0.54807270  0.12561304     0.36100
H758        H  0.43952624  0.58574344  0.13305996     0.41200
H759        H  0.30611341  0.67099084  0.99769049     0.40800
H760        H  0.34988139  0.70582259  0.00454193     0.35700
C761        C  0.31947230  0.38385630  0.92372491    -0.26000
C762        C  0.31588966  0.34497986  0.94490282    -0.14100
C763        C  0.34531903  0.33820038  0.97793624     0.36500
C764        C  0.37771098  0.36934097  0.98833095    -0.25500
C765        C  0.38237337  0.40720456  0.96625329    -0.14700
C766        C  0.35235117  0.41510071  0.93432172     0.37600
N767        N  0.35626306  0.45408728  0.91185186    -0.88900
H768        H  0.29837518  0.38893746  0.89756415     0.18700
H769        H  0.40050527  0.36333964  0.01317236     0.18700
N770        N  0.34508078  0.29890132  0.00010687    -0.88000
H771        H  0.32552420  0.46985088  0.91329545     0.36100
H772        H  0.36179732  0.44598908  0.88199412     0.41200
H773        H  0.35054087  0.27327707  0.98066678     0.40800
H774        H  0.31361884  0.29513945  0.01312481     0.35700
loop_ 
_geom_bond_atom_site_label_1 
_geom_bond_atom_site_label_2 
_geom_bond_distance 
_geom_bond_site_symmetry_2 
_ccdc_geom_bond_type 
N1            C6   1.357       .  A
N1            C5   1.356       .  A
N1           H33   1.036       .  S
N2            C9   1.351       .  A
N2           C10   1.352       .  A
N3            C8   1.354       .  A
N3            C7   1.355       .  A
N3           H34   1.037   1_556  S
N4           C11   1.351       .  A
N4           C12   1.350       .  A
C5           C13   1.387       .  A
C5           C21   1.422       .  A
C6           C22   1.425       .  A
C6           C14   1.388       .  A
C7           C15   1.386       .  A
C7           C24   1.418       .  A
C8           C23   1.420       .  A
C8           C16   1.388       .  A
C9           C21   1.412       .  A
C9           C17   1.387       .  A
C10          C24   1.411   1_554  A
C10          C18   1.386       .  A
C11          C19   1.386       .  A
C11          C22   1.412       .  A
C12          C20   1.387       .  A
C12          C23   1.412   1_554  A
C13          C14   1.379       .  A
C13          H25   1.082       .  S
C14          H26   1.082       .  S
C15          C16   1.378       .  A
C15          H27   1.082       .  S
C16          H28   1.082       .  S
C17          C18   1.370       .  A
C17          H29   1.082       .  S
C18          H30   1.082       .  S
C19          C20   1.371       .  A
C19          H31   1.082       .  S
C20          H32   1.082       .  S
C21         C751   1.488       .  S
C22         C720   1.492       .  S
C23         C737   1.486       .  S
C24         C765   1.489       .  S
N35          C40   1.357       .  A
N35          C39   1.358       .  A
N35          H67   1.035       .  S
N36          C43   1.352       .  A
N36          C44   1.352       .  A
N37          C42   1.359       .  A
N37          C41   1.359       .  A
N37          H68   1.036   1_545  S
N38          C45   1.356       .  A
N38          C46   1.356       .  A
C39          C47   1.388       .  A
C39          C55   1.427       .  A
C40          C56   1.426       .  A
C40          C48   1.388       .  A
C41          C49   1.387       .  A
C41          C58   1.427       .  A
C42          C57   1.431       .  A
C42          C50   1.389       .  A
C43          C55   1.415       .  A
C43          C51   1.386       .  A
C44          C58   1.416   1_565  A
C44          C52   1.387       .  A
C45          C53   1.386       .  A
C45          C56   1.422       .  A
C46          C54   1.386       .  A
C46          C57   1.422   1_565  A
C47          C48   1.377       .  A
C47          H59   1.082       .  S
C48          H60   1.082       .  S
C49          C50   1.377       .  A
C49          H61   1.082       .  S
C50          H62   1.082       .  S
C51          C52   1.371       .  A
C51          H63   1.082       .  S
C52          H64   1.082       .  S
C53          C54   1.375       .  A
C53          H65   1.082       .  S
C54          H66   1.082       .  S
C55         C664   1.497       .  S
C56         C678   1.499       .  S
C57         C709   1.505       .  S
C58         C692   1.497       .  S
N69          C74   1.364   1_455  A
N69          C73   1.364   1_455  A
N69         H101   1.038       .  S
N70          C77   1.355       .  A
N70          C78   1.357       .  A
N71          C76   1.362       .  A
N71          C75   1.365       .  A
N71         H102   1.036       .  S
N72          C79   1.360       .  A
N72          C80   1.360       .  A
C73          C81   1.388       .  A
C73          C89   1.436   1_655  A
C74          C90   1.435       .  A
C74          C82   1.387       .  A
C75          C83   1.386       .  A
C75          C92   1.436       .  A
C76          C91   1.438       .  A
C76          C84   1.389       .  A
C77          C89   1.422       .  A
C77          C85   1.388       .  A
C78          C92   1.420       .  A
C78          C86   1.385       .  A
C79          C87   1.385       .  A
C79          C90   1.425   1_455  A
C80          C88   1.389       .  A
C80          C91   1.430       .  A
C81          C82   1.385       .  A
C81          H93   1.082       .  S
C82          H94   1.082       .  S
C83          C84   1.385       .  A
C83          H95   1.082       .  S
C84          H96   1.081       .  S
C85          C86   1.373       .  A
C85          H97   1.082       .  S
C86          H98   1.082       .  S
C87          C88   1.370       .  A
C87          H99   1.082       .  S
C88         H100   1.082       .  S
C89         C636   1.516   1_455  S
C90         C650   1.520       .  S
C91         C625   1.519       .  S
C92         C608   1.520       .  S
N103        C107   1.355       .  A
N103        C104   1.362       .  A
N103        C594   1.447       .  S
C104        C105   1.389       .  A
C104        C762   1.482       .  S
C105        C106   1.371       .  A
C105        H108   1.083       .  S
C106        C107   1.374       .  A
C106        H109   1.082       .  S
C107        C583   1.472       .  S
N110        C114   1.358       .  A
N110        C111   1.366       .  A
N110        C566   1.452       .  S
C111        C112   1.388       .  A
C111        C748   1.494       .  S
C112        C113   1.367       .  A
C112        H115   1.082       .  S
C113        C114   1.376       .  A
C113        H116   1.083       .  S
C114        C552   1.463       .  S
N117        C121   1.360       .  A
N117        C118   1.365       .  A
N117        C538   1.445       .  S
C118        C119   1.384       .  A
C118        C681   1.489       .  S
C119        C120   1.369       .  A
C119        H122   1.082       .  S
C120        C121   1.379       .  A
C120        H123   1.082       .  S
C121        C524   1.478       .  S
O124        V132   1.865       .  S
O124        C134   1.258   1_554  A
O125        V132   1.867   1_565  S
O125        C135   1.258       .  A
O126        V132   1.885   1_556  S
O126        C136   1.263   1_545  A
O127        V132   1.885       .  S
O127        C137   1.261       .  A
O128        V133   1.919   1_545  S
O128        C137   1.268       .  A
O129        V133   1.918   1_556  S
O129        C136   1.268       .  A
O130        V133   1.907       .  S
O130        C135   1.267       .  A
O131        V133   1.907   1_546  S
O131        C134   1.264       .  A
V132        V133   2.085   1_545  T
C134        C580   1.453       .  S
C135        C555   1.471       .  S
C136        C527   1.488       .  S
C137        C510   1.472       .  S
N138        C142   1.362       .  A
N138        C139   1.368       .  A
N138        C496   1.448       .  S
C139        C140   1.385       .  A
C139        C706   1.494       .  S
C140        C141   1.369       .  A
C140        H143   1.082       .  S
C141        C142   1.377       .  A
C141        H144   1.082       .  S
C142        C513   1.480       .  S
N145        C149   1.356       .  A
N145        C146   1.357       .  A
N145        C468   1.448       .  S
C146        C147   1.383       .  A
C146        C734   1.479       .  S
C147        C148   1.372       .  A
C147        H150   1.082       .  S
C148        C149   1.382       .  A
C148        H151   1.082       .  S
C149        C482   1.470       .  S
N152        C156   1.368       .  A
N152        C153   1.381       .  A
N152        C457   1.472       .  S
C153        C154   1.388       .  A
C153        C622   1.510       .  S
C154        C155   1.358       .  A
C154        H157   1.082       .  S
C155        C156   1.372       .  A
C155        H158   1.083       .  S
C156        C440   1.480       .  S
O159        V167   1.883       .  S
O159        C169   1.259       .  A
O160        V167   1.885   1_455  S
O160        C170   1.256       .  A
O161        V167   1.929       .  S
O161        C171   1.273       .  A
O162        V167   1.927   1_554  S
O162        C172   1.273       .  A
O163        V168   1.895   1_554  S
O163        C172   1.261       .  A
O164        V168   1.887       .  S
O164        C171   1.260       .  A
O165        V168   1.926   1_455  S
O165        C170   1.273       .  A
O166        V168   1.926       .  S
O166        C169   1.272       .  A
V167        V168   2.084       .  T
C169        C471   1.488       .  S
C170        C597   1.477       .  S
C171        C443   1.493   1_655  S
C172        C429   1.493       .  S
N173        C177   1.378       .  A
N173        C174   1.385       .  A
N173        C415   1.478       .  S
C174        C175   1.382       .  A
C174        C653   1.505       .  S
C175        C176   1.357       .  A
C175        H178   1.083       .  S
C176        C177   1.376       .  A
C176        H179   1.083       .  S
C177        C426   1.492       .  S
N180        C184   1.366       .  A
N180        C181   1.376       .  A
N180        C387   1.466       .  S
C181        C182   1.385       .  A
C181        C639   1.499       .  S
C182        C183   1.361       .  A
C182        H185   1.083       .  S
C183        C184   1.375       .  A
C183        H186   1.083       .  S
C184        C401   1.481       .  S
N187        C191   1.361       .  A
N187        C188   1.365       .  A
N187        C356   1.448       .  S
C188        C189   1.382       .  A
C188        C695   1.487       .  S
C189        C190   1.368       .  A
C189        H192   1.083       .  S
C190        C191   1.379       .  A
C190        H193   1.082       .  S
C191        C373   1.479       .  S
O194        V202   1.930       .  S
O194        C204   1.272       .  A
O195        V202   1.923   1_565  S
O195        C205   1.268       .  A
O196        V202   1.915       .  S
O196        C206   1.267       .  A
O197        V202   1.906   1_455  S
O197        C207   1.266       .  A
O198        V203   1.910   1_455  S
O198        C207   1.265       .  A
O199        V203   1.902       .  S
O199        C206   1.264       .  A
O200        V203   1.933   1_565  S
O200        C205   1.272       .  A
O201        V203   1.931       .  S
O201        C204   1.272       .  A
V202        V203   2.084       .  T
C204        C412   1.522       .  S
C205        C384   1.511       .  S
C206        C359   1.487       .  S
C207        C499   1.485       .  S
N208        C212   1.355       .  A
N208        C209   1.363       .  A
N208        C331   1.448       .  S
C209        C210   1.386       .  A
C209        C723   1.482       .  S
C210        C211   1.367       .  A
C210        H213   1.082       .  S
C211        C212   1.376       .  A
C211        H214   1.083       .  S
C212        C345   1.461       .  S
N215        C219   1.380   1_455  A
N215        C216   1.383   1_455  A
N215        C314   1.473       .  S
C216        C217   1.381       .  A
C216        C611   1.503   1_655  S
C217        C218   1.357       .  A
C217        H220   1.083       .  S
C218        C219   1.377       .  A
C218        H221   1.083       .  S
C219        C303   1.493   1_655  S
N222        C226   1.365       .  A
N222        C223   1.369       .  A
N222        C272   1.453       .  S
C223        C224   1.382       .  A
C223        C667   1.480       .  S
C224        C225   1.361       .  A
C224        H227   1.083       .  S
C225        C226   1.377       .  A
C225        H228   1.082       .  S
C226        C286   1.479       .  S
O229        V237   1.867       .  S
O229        C239   1.259       .  A
O230        V237   1.858   1_564  S
O230        C240   1.256       .  A
O231        V237   1.891   1_554  S
O231        C241   1.264       .  A
O232        V237   1.890   1_565  S
O232        C242   1.263       .  A
O233        V238   1.909   1_565  S
O233        C242   1.265       .  A
O234        V238   1.916   1_554  S
O234        C241   1.267       .  A
O235        V238   1.914   1_564  S
O235        C240   1.267       .  A
O236        V238   1.909       .  S
O236        C239   1.267       .  A
V237        V238   2.087       .  T
C239        C485   1.475       .  S
C240        C342   1.467       .  S
C241        C370   1.485       .  S
C242        C289   1.471       .  S
O243        V251   1.935   1_545  S
O243        C253   1.273       .  A
O244        V251   1.932       .  S
O244        C254   1.273       .  A
O245        V251   1.906       .  S
O245        C255   1.265       .  A
O246        V251   1.905   1_655  S
O246        C256   1.265       .  A
O247        V252   1.915   1_655  S
O247        C256   1.267       .  A
O248        V252   1.910       .  S
O248        C255   1.267       .  A
O249        V252   1.927       .  S
O249        C254   1.271       .  A
O250        V252   1.928   1_545  S
O250        C253   1.271       .  A
V251        V252   2.077       .  T
C253        C454   1.521       .  S
C254        C317   1.520       .  S
C255        C541   1.485       .  S
C256        C275   1.487       .  S
O257        V265   1.896   1_556  S
O257        C267   1.261       .  A
O258        V265   1.888       .  S
O258        C268   1.260       .  A
O259        V265   1.929       .  S
O259        C269   1.273       .  A
O260        V265   1.924   1_655  S
O260        C270   1.271       .  A
O261        V266   1.889   1_655  S
O261        C270   1.260       .  A
O262        V266   1.889       .  S
O262        C269   1.260       .  A
O263        V266   1.926       .  S
O263        C268   1.272       .  A
O264        V266   1.935   1_556  S
O264        C267   1.274       .  A
V265        V266   2.085       .  T
C267        C300   1.496       .  S
C268        C398   1.489       .  S
C269        C569   1.490       .  S
C270        C328   1.483       .  S
C271        C272   1.407       .  A
C271        C276   1.401       .  A
C271        H278   1.083       .  S
C272        C273   1.420   1_565  A
C273        C274   1.408       .  A
C273        N280   1.429       .  S
C274        C275   1.403   1_545  A
C274        H279   1.084       .  S
C275        C276   1.414       .  A
C276        N277   1.433       .  S
N277        H281   1.044       .  S
N277        H282   1.044       .  S
N280        H283   1.045       .  S
N280        H284   1.042       .  S
C285        C286   1.404       .  A
C285        C290   1.401       .  A
C285        H292   1.084       .  S
C286        C287   1.413   1_565  A
C287        C288   1.403       .  A
C287        N294   1.432       .  S
C288        C289   1.403   1_545  A
C288        H293   1.084       .  S
C289        C290   1.405       .  A
C290        N291   1.433       .  S
N291        H295   1.045       .  S
N291        H296   1.046       .  S
N294        H297   1.045       .  S
N294        H298   1.044       .  S
C299        C300   1.403       .  A
C299        C304   1.413       .  A
C299        H306   1.084       .  S
C300        C301   1.414   1_455  A
C301        C302   1.412       .  A
C301        N308   1.432       .  S
C302        C303   1.403   1_655  A
C302        H307   1.084       .  S
C303        C304   1.417       .  A
C304        N305   1.432       .  S
N305        H309   1.045       .  S
N305        H310   1.046       .  S
N308        H311   1.046       .  S
N308        H312   1.045       .  S
C313        C314   1.412   1_655  A
C313        C318   1.416       .  A
C313        H320   1.083       .  S
C314        C315   1.424       .  A
C315        C316   1.419       .  A
C315        N322   1.434       .  S
C316        C317   1.410       .  A
C316        H321   1.084       .  S
C317        C318   1.422   1_455  A
C318        N319   1.432       .  S
N319        H323   1.045       .  S
N319        H324   1.044       .  S
N322        H325   1.043       .  S
N322        H326   1.045       .  S
C327        C328   1.400       .  A
C327        C332   1.410       .  A
C327        H334   1.084   1_554  S
C328        C329   1.411       .  A
C329        C330   1.403       .  A
C329        N336   1.433       .  S
C330        C331   1.401       .  A
C330        H335   1.084       .  S
C331        C332   1.423       .  A
C332        N333   1.434   1_554  S
N333        H337   1.045       .  S
N333        H338   1.043       .  S
N336        H339   1.046       .  S
N336        H340   1.046       .  S
C341        C342   1.404       .  A
C341        C346   1.405       .  A
C341        H348   1.084       .  S
C342        C343   1.411       .  A
C343        C344   1.386       .  A
C343        N350   1.434   1_554  S
C344        C345   1.394       .  A
C344        H349   1.085       .  S
C345        C346   1.413       .  A
C346        N347   1.436       .  S
N347        H351   1.045       .  S
N347        H352   1.044       .  S
N350        H353   1.046       .  S
N350        H354   1.046       .  S
C355        C356   1.404       .  A
C355        C360   1.405       .  A
C355        H362   1.083       .  S
C356        C357   1.412   1_545  A
C357        C358   1.412       .  A
C357        N364   1.430       .  S
C358        C359   1.405   1_565  A
C358        H363   1.084       .  S
C359        C360   1.410       .  A
C360        N361   1.433       .  S
N361        H365   1.045       .  S
N361        H366   1.046       .  S
N364        H367   1.045       .  S
N364        H368   1.045       .  S
C369        C370   1.404       .  A
C369        C374   1.393       .  A
C369        H376   1.084   1_545  S
C370        C371   1.412       .  A
C371        C372   1.412       .  A
C371        N378   1.431       .  S
C372        C373   1.404       .  A
C372        H377   1.084       .  S
C373        C374   1.411       .  A
C374        N375   1.433   1_545  S
N375        H379   1.044   1_565  S
N375        H380   1.044       .  S
N378        H381   1.045       .  S
N378        H382   1.046       .  S
C383        C384   1.411   1_455  A
C383        C388   1.417       .  A
C383        H390   1.084       .  S
C384        C385   1.416       .  A
C385        C386   1.413       .  A
C385        N392   1.432       .  S
C386        C387   1.414       .  A
C386        H391   1.083       .  S
C387        C388   1.418   1_655  A
C388        N389   1.431       .  S
N389        H393   1.041       .  S
N389        H394   1.046       .  S
N392        H395   1.046       .  S
N392        H396   1.045       .  S
C397        C398   1.402       .  A
C397        C402   1.408       .  A
C397        H404   1.084       .  S
C398        C399   1.418   1_455  A
C399        C400   1.406       .  A
C399        N406   1.432       .  S
C400        C401   1.397       .  A
C400        H405   1.084       .  S
C401        C402   1.411   1_655  A
C402        N403   1.431       .  S
N403        H407   1.046       .  S
N403        H408   1.045       .  S
N406        H409   1.046       .  S
N406        H410   1.045       .  S
C411        C412   1.410       .  A
C411        C416   1.422       .  A
C411        H418   1.084       .  S
C412        C413   1.415   1_655  A
C413        C414   1.420   1_455  A
C413        N420   1.432       .  S
C414        C415   1.414       .  A
C414        H419   1.080   1_655  S
C415        C416   1.423       .  A
C416        N417   1.430       .  S
N417        H421   1.045       .  S
N417        H422   1.046       .  S
N420        H423   1.045       .  S
N420        H424   1.046       .  S
C425        C426   1.410   1_455  A
C425        C430   1.406       .  A
C425        H432   1.084       .  S
C426        C427   1.415       .  A
C427        C428   1.410       .  A
C427        N434   1.438       .  S
C428        C429   1.409       .  A
C428        H433   1.084       .  S
C429        C430   1.412   1_655  A
C430        N431   1.432       .  S
N431        H435   1.045       .  S
N431        H436   1.046       .  S
N434        H437   1.044       .  S
N434        H438   1.045       .  S
C439        C440   1.407       .  A
C439        C444   1.405   1_455  A
C439        H446   1.084   1_455  S
C440        C441   1.411       .  A
C441        C442   1.403       .  A
C441        N448   1.439       .  S
C442        C443   1.411       .  A
C442        H447   1.084       .  S
C443        C444   1.413   1_455  A
C444        N445   1.432       .  S
N445        H449   1.044       .  S
N445        H450   1.046       .  S
N448        H451   1.044       .  S
N448        H452   1.045       .  S
C453        C454   1.410   1_655  A
C453        C458   1.422       .  A
C453        H460   1.083       .  S
C454        C455   1.422       .  A
C455        C456   1.415       .  A
C455        N462   1.432       .  S
C456        C457   1.413       .  A
C456        H461   1.083       .  S
C457        C458   1.418   1_455  A
C458        N459   1.431       .  S
N459        H463   1.046       .  S
N459        H464   1.045       .  S
N462        H465   1.045       .  S
N462        H466   1.046       .  S
C467        C468   1.410       .  A
C467        C472   1.413       .  A
C467        H474   1.083       .  S
C468        C469   1.406       .  A
C469        C470   1.401       .  A
C469        N476   1.432       .  S
C470        C471   1.407       .  A
C470        H475   1.084       .  S
C471        C472   1.410       .  A
C472        N473   1.437   1_556  S
N473        H477   1.046       .  S
N473        H478   1.046       .  S
N476        H479   1.046       .  S
N476        H480   1.045       .  S
C481        C482   1.403       .  A
C481        C486   1.406       .  A
C481        H488   1.084       .  S
C482        C483   1.404       .  A
C483        C484   1.389       .  A
C483        N490   1.434       .  S
C484        C485   1.404       .  A
C484        H489   1.084       .  S
C485        C486   1.412       .  A
C486        N487   1.432       .  S
N487        H491   1.045       .  S
N487        H492   1.045       .  S
N490        H493   1.045       .  S
N490        H494   1.046       .  S
C495        C496   1.406   1_565  A
C495        C500   1.408       .  A
C495        H502   1.081       .  S
C496        C497   1.417       .  A
C497        C498   1.405       .  A
C497        N504   1.431       .  S
C498        C499   1.403       .  A
C498        H503   1.084       .  S
C499        C500   1.408   1_545  A
C500        N501   1.432       .  S
N501        H505   1.045       .  S
N501        H506   1.046       .  S
N504        H507   1.045       .  S
N504        H508   1.044       .  S
C509        C510   1.402       .  A
C509        C514   1.410       .  A
C509        H516   1.084       .  S
C510        C511   1.408   1_545  A
C511        C512   1.401   1_565  A
C511        N518   1.433       .  S
C512        C513   1.401       .  A
C512        H517   1.084   1_545  S
C513        C514   1.409       .  A
C514        N515   1.431       .  S
N515        H519   1.046       .  S
N515        H520   1.046       .  S
N518        H521   1.045       .  S
N518        H522   1.046       .  S
C523        C524   1.404       .  A
C523        C528   1.408       .  A
C523        H530   1.084       .  S
C524        C525   1.410       .  A
C525        C526   1.392   1_565  A
C525        N532   1.434   1_565  S
C526        C527   1.406   1_545  A
C526        H531   1.084       .  S
C527        C528   1.419       .  A
C528        N529   1.431       .  S
N529        H533   1.045       .  S
N529        H534   1.045       .  S
N532        H535   1.045       .  S
N532        H536   1.044   1_545  S
C537        C538   1.403       .  A
C537        C542   1.401       .  A
C537        H544   1.083       .  S
C538        C539   1.410   1_565  A
C539        C540   1.410       .  A
C539        N546   1.430       .  S
C540        C541   1.405   1_545  A
C540        H545   1.084       .  S
C541        C542   1.415       .  A
C542        N543   1.433       .  S
N543        H547   1.044       .  S
N543        H548   1.046       .  S
N546        H549   1.046       .  S
N546        H550   1.045       .  S
C551        C552   1.396       .  A
C551        C556   1.390       .  A
C551        H558   1.085       .  S
C552        C553   1.409       .  A
C553        C554   1.400       .  A
C553        N560   1.432       .  S
C554        C555   1.407       .  A
C554        H559   1.084       .  S
C555        C556   1.413       .  A
C556        N557   1.434       .  S
N557        H561   1.046       .  S
N557        H562   1.046       .  S
N560        H563   1.045       .  S
N560        H564   1.043       .  S
C565        C566   1.401       .  A
C565        C570   1.406       .  A
C565        H572   1.083       .  S
C566        C567   1.425       .  A
C567        C568   1.409       .  A
C567        N574   1.435       .  S
C568        C569   1.400       .  A
C568        H573   1.084   1_554  S
C569        C570   1.415       .  A
C570        N571   1.433       .  S
N571        H575   1.046       .  S
N571        H576   1.046       .  S
N574        H577   1.043       .  S
N574        H578   1.044       .  S
C579        C580   1.395   1_554  A
C579        C584   1.390   1_554  A
C579        H586   1.085       .  S
C580        C581   1.409       .  A
C581        C582   1.407       .  A
C581        N588   1.437       .  S
C582        C583   1.403       .  A
C582        H587   1.084       .  S
C583        C584   1.405       .  A
C584        N585   1.429   1_556  S
N585        H589   1.046       .  S
N585        H590   1.044       .  S
N588        H591   1.046       .  S
N588        H592   1.045       .  S
C593        C594   1.406       .  A
C593        C598   1.399       .  A
C593        H600   1.084       .  S
C594        C595   1.410       .  A
C595        C596   1.414       .  A
C595        N602   1.429   1_556  S
C596        C597   1.406       .  A
C596        H601   1.083   1_556  S
C597        C598   1.406       .  A
C598        N599   1.431       .  S
N599        H603   1.046       .  S
N599        H604   1.046       .  S
N602        H605   1.045       .  S
N602        H606   1.044       .  S
C607        C608   1.410       .  A
C607        C612   1.419       .  A
C607        H614   1.083       .  S
C608        C609   1.417   1_455  A
C609        C610   1.408       .  A
C609        N616   1.433       .  S
C610        C611   1.409   1_655  A
C610        H615   1.084       .  S
C611        C612   1.420       .  A
C612        N613   1.432       .  S
N613        H617   1.045       .  S
N613        H618   1.046       .  S
N616        H619   1.046       .  S
N616        H620   1.044       .  S
C621        C622   1.410       .  A
C621        C626   1.425   1_455  A
C621        H628   1.083   1_455  S
C622        C623   1.417       .  A
C623        C624   1.409       .  A
C623        N630   1.433       .  S
C624        C625   1.405       .  A
C624        H629   1.084       .  S
C625        C626   1.418   1_455  A
C626        N627   1.436       .  S
N627        H631   1.045       .  S
N627        H632   1.046       .  S
N630        H633   1.046       .  S
N630        H634   1.045       .  S
C635        C636   1.409       .  A
C635        C640   1.412       .  A
C635        H642   1.084       .  S
C636        C637   1.412   1_655  A
C637        C638   1.417       .  A
C637        N644   1.431       .  S
C638        C639   1.410   1_455  A
C638        H643   1.082       .  S
C639        C640   1.411       .  A
C640        N641   1.432       .  S
N641        H645   1.046       .  S
N641        H646   1.045       .  S
N644        H647   1.045       .  S
N644        H648   1.045       .  S
C649        C650   1.410   1_455  A
C649        C654   1.417       .  A
C649        H656   1.083       .  S
C650        C651   1.415       .  A
C651        C652   1.410       .  A
C651        N658   1.432       .  S
C652        C653   1.412       .  A
C652        H657   1.084       .  S
C653        C654   1.419   1_655  A
C654        N655   1.432       .  S
N655        H659   1.045       .  S
N655        H660   1.046       .  S
N658        H661   1.045       .  S
N658        H662   1.045       .  S
C663        C664   1.406       .  A
C663        C668   1.408       .  A
C663        H670   1.083       .  S
C664        C665   1.411   1_565  A
C665        C666   1.399       .  A
C665        N672   1.433       .  S
C666        C667   1.406   1_545  A
C666        H671   1.084       .  S
C667        C668   1.413       .  A
C668        N669   1.432       .  S
N669        H673   1.045       .  S
N669        H674   1.046       .  S
N672        H675   1.045       .  S
N672        H676   1.045       .  S
C677        C678   1.406       .  A
C677        C682   1.412       .  A
C677        H684   1.083   1_565  S
C678        C679   1.406       .  A
C679        C680   1.406       .  A
C679        N686   1.432       .  S
C680        C681   1.407       .  A
C680        H685   1.084       .  S
C681        C682   1.411       .  A
C682        N683   1.432   1_565  S
N683        H687   1.045       .  S
N683        H688   1.046       .  S
N686        H689   1.045       .  S
N686        H690   1.046       .  S
C691        C692   1.403   1_565  A
C691        C696   1.405   1_565  A
C691        H698   1.084       .  S
C692        C693   1.413       .  A
C693        C694   1.402       .  A
C693        N700   1.432       .  S
C694        C695   1.405       .  A
C694        H699   1.084       .  S
C695        C696   1.417       .  A
C696        N697   1.431   1_545  S
N697        H701   1.044       .  S
N697        H702   1.045       .  S
N700        H703   1.045       .  S
N700        H704   1.045       .  S
C705        C706   1.408       .  A
C705        C710   1.402       .  A
C705        H712   1.084       .  S
C706        C707   1.410       .  A
C707        C708   1.415   1_545  A
C707        N714   1.431   1_545  S
C708        C709   1.408   1_565  A
C708        H713   1.083       .  S
C709        C710   1.413       .  A
C710        N711   1.433       .  S
N711        H715   1.044       .  S
N711        H716   1.045       .  S
N714        H717   1.045       .  S
N714        H718   1.046       .  S
C719        C720   1.402       .  A
C719        C724   1.402       .  A
C719        H726   1.084       .  S
C720        C721   1.413       .  A
C721        C722   1.402       .  A
C721        N728   1.432   1_554  S
C722        C723   1.404       .  A
C722        H727   1.083       .  S
C723        C724   1.417       .  A
C724        N725   1.434       .  S
N725        H729   1.043       .  S
N725        H730   1.046       .  S
N728        H731   1.045       .  S
N728        H732   1.046       .  S
C733        C734   1.404       .  A
C733        C738   1.398       .  A
C733        H740   1.084       .  S
C734        C735   1.418       .  A
C735        C736   1.400       .  A
C735        N742   1.432       .  S
C736        C737   1.400       .  A
C736        H741   1.084   1_556  S
C737        C738   1.410       .  A
C738        N739   1.432       .  S
N739        H743   1.045       .  S
N739        H744   1.045       .  S
N742        H745   1.043       .  S
N742        H746   1.045       .  S
C747        C748   1.410       .  A
C747        C752   1.399       .  A
C747        H754   1.084       .  S
C748        C749   1.413       .  A
C749        C750   1.406       .  A
C749        N756   1.428       .  S
C750        C751   1.401       .  A
C750        H755   1.084       .  S
C751        C752   1.408       .  A
C752        N753   1.432       .  S
N753        H757   1.045       .  S
N753        H758   1.045       .  S
N756        H759   1.046   1_554  S
N756        H760   1.046       .  S
C761        C762   1.405       .  A
C761        C766   1.409       .  A
C761        H768   1.084       .  S
C762        C763   1.419       .  A
C763        C764   1.396       .  A
C763        N770   1.430   1_556  S
C764        C765   1.397       .  A
C764        H769   1.084   1_556  S
C765        C766   1.408       .  A
C766        N767   1.431       .  S
N767        H771   1.045       .  S
N767        H772   1.046       .  S
N770        H773   1.045   1_554  S
N770        H774   1.041       .  S
