geometry optimzed in LAMMPS
_audit_creation_date              2020-11-30 
_audit_creation_method            'lammps2cif' 
_symmetry_space_group_name_H-M    'P1' 
_symmetry_Int_Tables_number       1 
_symmetry_cell_setting            triclinic 
loop_ 
_symmetry_equiv_pos_as_xyz 
  x,y,z 
_cell_length_a                    34.24836426 
_cell_length_b                    34.6368147233548 
_cell_length_c                    34.562379671361896 
_cell_angle_alpha                 90.21187205584242 
_cell_angle_beta                  90.49105542023133 
_cell_angle_gamma                 90.12675725160761 
loop_ 
_atom_site_label 
_atom_site_type_symbol 
_atom_site_fract_x 
_atom_site_fract_y 
_atom_site_fract_z 
_atom_site_charge 
O1          O  0.53814615  0.46825657  0.02636273    -0.71600
O2          O  0.45685930  0.54203434  0.01450526    -0.71800
O3          O  0.46019875  0.46505031  0.02126580    -0.71600
O4          O  0.53502625  0.54538904  0.01924072    -0.71600
O5          O  0.53972133  0.53872414  0.95692463    -0.71600
O6          O  0.46243812  0.46054601  0.95891423    -0.71600
O7          O  0.46114072  0.53806846  0.95204355    -0.71600
O8          O  0.54053592  0.46187548  0.96400371    -0.71800
V9          V  0.49759050  0.50515422  0.01912318     1.35200
V10         V  0.50086290  0.49992613  0.95914408     1.35200
C11         C  0.55304443  0.45213952  0.99716171     0.77700
C12         C  0.44489909  0.55253733  0.98150167     0.77700
C13         C  0.44865471  0.44870193  0.99044998     0.77600
C14         C  0.55059774  0.55523079  0.98776923     0.77600
O15         O  0.45682162  0.02052162  0.44302746    -0.71600
O16         O  0.53270597  0.02590026  0.52382424    -0.71800
O17         O  0.53520675  0.02174594  0.44644597    -0.71600
O18         O  0.45469554  0.02531413  0.52083125    -0.71600
O19         O  0.45507933  0.96303969  0.52458990    -0.71600
O20         O  0.53582290  0.95933813  0.44961787    -0.71600
O21         O  0.53330149  0.96331420  0.52695359    -0.71600
O22         O  0.45739957  0.95802872  0.44708528    -0.71800
V23         V  0.49483870  0.02218664  0.48355760     1.35200
V24         V  0.49535234  0.96214027  0.48693727     1.35200
C25         C  0.44405309  0.98810947  0.43145510     0.77700
C26         C  0.54554343  0.99544371  0.53937438     0.77700
C27         C  0.54967873  0.99003427  0.43548904     0.77600
C28         C  0.44132694  0.99492205  0.53603183     0.77600
O29         O  0.98259574  0.46071555  0.46936831    -0.71600
O30         O  0.98034324  0.54345726  0.54191249    -0.71800
O31         O  0.98277260  0.53780365  0.46454207    -0.71600
O32         O  0.97984050  0.46632047  0.54706691    -0.71600
O33         O  0.04285073  0.46822063  0.55138530    -0.71600
O34         O  0.04585919  0.53638056  0.46524847    -0.71600
O35         O  0.04341596  0.54528856  0.54257028    -0.71600
O36         O  0.04562381  0.45932141  0.47386580    -0.71800
V37         V  0.98260428  0.50206123  0.50576613     1.35200
V38         V  0.04327993  0.50224953  0.50823112     1.35200
C39         C  0.01461668  0.44591139  0.45893295     0.77700
C40         C  0.01152572  0.55879874  0.55467079     0.77700
C41         C  0.01455702  0.54916107  0.45034750     0.77600
C42         C  0.01077886  0.45544818  0.56398312     0.77600
C43         C  0.33637193  0.32554568  0.00440650     0.80400
N44         N  0.34642443  0.28793536  0.00024998    -0.77900
C45         C  0.31841613  0.26027209  0.99922716     0.82900
N46         N  0.28039258  0.27074643  0.00123155    -0.77800
C47         C  0.26985623  0.30830537  0.00485368     0.83000
N48         N  0.29815471  0.33572211  0.00653193    -0.79500
C49         C  0.32430415  0.67077003  0.97413125     0.80400
N50         N  0.28687687  0.65970254  0.98092357    -0.77900
C51         C  0.25822193  0.68635167  0.98455569     0.82900
N52         N  0.26674846  0.72433854  0.98068897    -0.77800
C53         C  0.30353631  0.73618732  0.97290732     0.83000
N54         N  0.33238212  0.70913227  0.97042643    -0.79500
C55         C  0.32281364  0.01252036  0.65380240     0.80400
N56         N  0.33418639  0.01488061  0.69146530    -0.77900
C57         C  0.30719703  0.01666689  0.72001043     0.82900
N58         N  0.26870247  0.01513831  0.71037631    -0.77800
C59         C  0.25686120  0.01278251  0.67276605     0.83000
N60         N  0.28421598  0.01107792  0.64458773    -0.79500
N61         N  0.35274232  0.95942781  0.93447925    -0.36400
N62         N  0.35150584  0.04296304  0.94233808    -0.57000
N63         N  0.34347788  0.03663634  0.02564119    -0.36400
N64         N  0.34139880  0.95329216  0.01813170    -0.57000
C65         C  0.34528601  0.97041558  0.89750468     0.27200
C66         C  0.34137415  0.92209473  0.93772110     0.27200
C67         C  0.33407701  0.07405041  0.01995357     0.27200
C68         C  0.32898601  0.02651215  0.06039055     0.27200
C69         C  0.36057730  0.04016510  0.90457293     0.35800
C70         C  0.35724327  0.08017887  0.95242614     0.35800
C71         C  0.34528969  0.91540247  0.00957317     0.35800
C72         C  0.34102598  0.95601795  0.05720631     0.35800
C73         C  0.32969147  0.93951097  0.87696908    -0.21700
C74         C  0.32780584  0.90893796  0.90208148    -0.21700
C75         C  0.31369961  0.08795933  0.05159130    -0.21700
C76         C  0.31051783  0.05789577  0.07717939    -0.21700
C77         C  0.37240498  0.07572689  0.89056452    -0.22700
C78         C  0.37044425  0.10114862  0.92104185    -0.22700
C79         C  0.34670581  0.89400241  0.04342950    -0.22700
C80         C  0.34455712  0.91974883  0.07354196    -0.22700
C81         C  0.35255377  0.00740879  0.88158209    -0.18100
C82         C  0.34298787  0.89944298  0.97185137    -0.18100
C83         C  0.33376729  0.99029401  0.07823777    -0.18100
C84         C  0.34459594  0.09632612  0.98756639    -0.18100
H85         H  0.32043436  0.93895628  0.84695903     0.14800
H86         H  0.31694607  0.88044624  0.89484964     0.14800
H87         H  0.30238061  0.11679958  0.05587132     0.14800
H88         H  0.29637986  0.05902882  0.10505018     0.14800
H89         H  0.38008475  0.08284938  0.86112306     0.13100
H90         H  0.37612182  0.13187464  0.91978664     0.13100
H91         H  0.34810086  0.86293616  0.04625854     0.13100
H92         H  0.34416902  0.91240284  0.10394218     0.13100
H93         H  0.36584107  0.97605359  0.95608243     0.26400
H94         H  0.36067945  0.01960688  0.00779237     0.26400
C95         C  0.32947261  0.98502145  0.30774138     0.80400
N96         N  0.29238131  0.98876122  0.32075831    -0.77900
C97         C  0.26168479  0.99179239  0.29600643     0.82900
N98         N  0.26857918  0.99015575  0.25728601    -0.77800
C99         C  0.30528908  0.98511480  0.24352080     0.83000
N100        N  0.33578590  0.98297549  0.26901075    -0.79500
C101        C  0.67225168  0.33389260  0.99873738     0.80400
N102        N  0.71112919  0.34165655  0.99990684    -0.77900
C103        C  0.73749793  0.31260993  0.00240436     0.82900
N104        N  0.72440451  0.27568435  0.00303799    -0.77800
C105        C  0.68583445  0.26718819  0.00250750     0.83000
N106        N  0.65959326  0.29657032  0.00034453    -0.79500
C107        C  0.00106995  0.33621494  0.68042993     0.80400
N108        N  0.99864583  0.29903104  0.66768314    -0.77900
C109        C  0.99917921  0.26939686  0.69334947     0.82900
N110        N  0.00168715  0.27763743  0.73162965    -0.77800
C111        C  0.00362841  0.31444962  0.74488722     0.83000
N112        N  0.00336940  0.34378964  0.71899464    -0.79500
N113        N  0.96224711  0.33249269  0.97007632    -0.36400
N114        N  0.96176787  0.34181323  0.05513056    -0.57000
N115        N  0.04606208  0.33833781  0.05466076    -0.36400
N116        N  0.04614771  0.33499015  0.96953892    -0.57000
C117        C  0.92452734  0.34093647  0.97696875     0.27200
C118        C  0.96864399  0.33894152  0.93205971     0.27200
C119        C  0.04003875  0.34732950  0.09226718     0.27200
C120        C  0.08437193  0.34362127  0.04753150     0.27200
C121        C  0.92402577  0.33228606  0.04849277     0.35800
C122        C  0.96823914  0.33675494  0.09345409     0.35800
C123        C  0.03976960  0.32628463  0.93181061     0.35800
C124        C  0.08424513  0.32789767  0.97672878     0.35800
C125        C  0.90656288  0.35293172  0.94294601    -0.21700
C126        C  0.93456024  0.35196241  0.91460760    -0.21700
C127        C  0.07504494  0.35857706  0.10933245    -0.21700
C128        C  0.10305774  0.35633714  0.08104067    -0.21700
C129        C  0.90618692  0.32205821  0.08282354    -0.22700
C130        C  0.93414478  0.32512437  0.11136574    -0.22700
C131        C  0.07413562  0.31433077  0.91473068    -0.22700
C132        C  0.10232308  0.31532591  0.94317662    -0.22700
C133        C  0.90506326  0.33385153  0.01207404    -0.18100
C134        C  0.00355788  0.33040438  0.91234014    -0.18100
C135        C  0.10343044  0.33378094  0.01272187    -0.18100
C136        C  0.00476588  0.34146489  0.11237970    -0.18100
H137        H  0.87618836  0.36056678  0.93880063     0.14800
H138        H  0.93002356  0.35873983  0.88435408     0.14800
H139        H  0.08004667  0.36649403  0.13929448     0.14800
H140        H  0.13389144  0.36221203  0.08498796     0.14800
H141        H  0.87622916  0.31302076  0.08684738     0.13100
H142        H  0.93007303  0.31861741  0.14167075     0.13100
H143        H  0.07845283  0.30568560  0.88495326     0.13100
H144        H  0.13267826  0.30760433  0.93952685     0.13100
H145        H  0.98134654  0.31975245  0.98967088     0.26400
H146        H  0.02600202  0.32598710  0.03571627     0.26400
C147        C  0.00879350  0.32342597  0.34421213     0.80400
N148        N  0.01048761  0.33450420  0.30664730    -0.77900
C149        C  0.00663410  0.30829335  0.27767105     0.82900
N150        N  0.00191226  0.27047849  0.28715972    -0.77800
C151        C  0.00058645  0.25850951  0.32461028     0.83000
N152        N  0.00376136  0.28551974  0.35307848    -0.79500
C153        C  0.02167422  0.66342703  0.32901502     0.80400
N154        N  0.02122005  0.70112860  0.33941284    -0.77900
C155        C  0.01706232  0.72890938  0.31226175     0.82900
N156        N  0.01420345  0.71836427  0.27437934    -0.77800
C157        C  0.01500476  0.68069342  0.26323887     0.83000
N158        N  0.01813914  0.65337991  0.29113756    -0.79500
C159        C  0.66934655  0.99380060  0.31832401     0.80400
N160        N  0.70786642  0.99045474  0.32740231    -0.77900
C161        C  0.73511816  0.98913527  0.29910882     0.82900
N162        N  0.72303168  0.99142533  0.26165817    -0.77800
C163        C  0.68469351  0.99475210  0.25213159     0.83000
N164        N  0.65797297  0.99595636  0.28072332    -0.79500
N165        N  0.04442819  0.95263835  0.34597014    -0.36400
N166        N  0.96029959  0.94714261  0.33863301    -0.57000
N167        N  0.95717857  0.03173819  0.33536693    -0.36400
N168        N  0.04093642  0.03678591  0.34895693    -0.57000
C169        C  0.03960388  0.91447998  0.35224035     0.27200
C170        C  0.08216284  0.96125109  0.35335438     0.27200
C171        C  0.91887228  0.02255746  0.33700697     0.27200
C172        C  0.96073136  0.06963133  0.34456244     0.27200
C173        C  0.96917368  0.90949007  0.33390077     0.35800
C174        C  0.92321007  0.95142351  0.32602347     0.35800
C175        C  0.07989991  0.03260856  0.34490691     0.35800
C176        C  0.03337973  0.07474888  0.34417475     0.35800
C177        C  0.07477364  0.89866535  0.36450668    -0.21700
C178        C  0.10179600  0.92818595  0.36474454    -0.21700
C179        C  0.89767572  0.05515931  0.34694803    -0.21700
C180        C  0.92410743  0.08485808  0.35168563    -0.21700
C181        C  0.93718822  0.88952630  0.31909345    -0.22700
C182        C  0.90804312  0.91617361  0.31400514    -0.22700
C183        C  0.09732776  0.06820011  0.33897094    -0.22700
C184        C  0.06788463  0.09494465  0.33875517    -0.22700
C185        C  0.00587815  0.89288715  0.34236562    -0.18100
C186        C  0.10005027  0.99709331  0.34560940    -0.18100
C187        C  0.99574888  0.09147506  0.34381669    -0.18100
C188        C  0.90223914  0.98636546  0.32698382    -0.18100
H189        H  0.08076099  0.86864368  0.37074856     0.14800
H190        H  0.13258473  0.92546786  0.37147699     0.14800
H191        H  0.86633520  0.05745453  0.34994686     0.14800
H192        H  0.91712888  0.11442971  0.35904640     0.14800
H193        H  0.93520731  0.85906924  0.31220023     0.13100
H194        H  0.87904461  0.91028781  0.30272503     0.13100
H195        H  0.12802110  0.07425349  0.33485173     0.13100
H196        H  0.07145439  0.12563357  0.33416782     0.13100
H197        H  0.02435737  0.97112436  0.33342725     0.26400
H198        H  0.97917211  0.01373185  0.32569194     0.26400
C199        C  0.66272646  0.67978159  0.99185122     0.80400
N200        N  0.70096328  0.67035761  0.99741852    -0.77900
C201        C  0.72920772  0.69810723  0.99859459     0.82900
N202        N  0.71859407  0.73551705  0.99324157    -0.77800
C203        C  0.68064947  0.74525818  0.98706459     0.83000
N204        N  0.65289050  0.71730334  0.98665033    -0.79500
C205        C  0.99727480  0.68089538  0.66914296     0.80400
N206        N  0.99329092  0.67124875  0.70702109    -0.77900
C207        C  0.99149551  0.69912276  0.73472223     0.82900
N208        N  0.99311320  0.73663338  0.72370942    -0.77800
C209        C  0.99771748  0.74683759  0.68621394     0.83000
N210        N  0.99975740  0.71862056  0.65885923    -0.79500
C211        C  0.66191340  0.00179894  0.66039206     0.80400
N212        N  0.70002615  0.00715553  0.65121362    -0.77900
C213        C  0.72739816  0.01243879  0.67948675     0.82900
N214        N  0.71604136  0.01187481  0.71691325    -0.77800
C215        C  0.67800919  0.00716431  0.72654044     0.83000
N216        N  0.65103224  0.00201195  0.69808056    -0.79500
N217        N  0.64570919  0.96605231  0.94722909    -0.36400
N218        N  0.64382910  0.04983928  0.94790523    -0.57000
N219        N  0.64843074  0.04683846  0.03182466    -0.36400
N220        N  0.64567369  0.96315863  0.03101771    -0.57000
C221        C  0.63689612  0.97428621  0.91005654     0.27200
C222        C  0.63537672  0.92895631  0.95338523     0.27200
C223        C  0.63816853  0.08398218  0.02598034     0.27200
C224        C  0.64175309  0.03879348  0.06937076     0.27200
C225        C  0.65472358  0.04339406  0.91099213     0.35800
C226        C  0.65331179  0.08682532  0.95616312     0.35800
C227        C  0.65431894  0.92610429  0.02252891     0.35800
C228        C  0.65820320  0.96941518  0.06763888     0.35800
C229        C  0.62025469  0.94221405  0.89228325    -0.21700
C230        C  0.61924667  0.91349132  0.91976362    -0.21700
C231        C  0.62445443  0.09971293  0.06024479    -0.21700
C232        C  0.62669357  0.07106544  0.08773011    -0.21700
C233        C  0.67074617  0.07660559  0.89542204    -0.22700
C234        C  0.66992104  0.10421303  0.92417867    -0.22700
C235        C  0.67201568  0.90852846  0.05408015    -0.22700
C236        C  0.67438761  0.93603666  0.08279361    -0.22700
C237        C  0.64845241  0.00827370  0.89102008    -0.18100
C238        C  0.64472399  0.90783465  0.98709287    -0.18100
C239        C  0.65319162  0.00444589  0.08792274    -0.18100
C240        C  0.64580308  0.10505426  0.99193601    -0.18100
H241        H  0.61139335  0.93937556  0.86226754     0.14800
H242        H  0.60930461  0.88414142  0.91511948     0.14800
H243        H  0.61522899  0.12917403  0.06520512     0.14800
H244        H  0.61954035  0.07403506  0.11803904     0.14800
H245        H  0.68177954  0.08051202  0.86644399     0.13100
H246        H  0.68022964  0.13366628  0.92182090     0.13100
H247        H  0.68222713  0.87905968  0.05617500     0.13100
H248        H  0.68665445  0.93198429  0.11145271     0.13100
H249        H  0.66166586  0.98357467  0.96602581     0.26400
H250        H  0.66286372  0.02910052  0.01236311     0.26400
N251        N  0.03142266  0.96498757  0.64511809    -0.36400
N252        N  0.94731741  0.96489014  0.64091787    -0.57000
N253        N  0.95014868  0.04903772  0.65123277    -0.36400
N254        N  0.03396246  0.04904377  0.64999152    -0.57000
C255        C  0.02394118  0.92793739  0.63531693     0.27200
C256        C  0.06919483  0.97206522  0.63682477     0.27200
C257        C  0.91313213  0.04309653  0.63896303     0.27200
C258        C  0.95823475  0.08689960  0.64618236     0.27200
C259        C  0.95342319  0.92742205  0.64964352     0.35800
C260        C  0.90989039  0.97247865  0.64987310     0.35800
C261        C  0.07138367  0.04041484  0.65846652     0.35800
C262        C  0.02786536  0.08497623  0.66387495     0.35800
C263        C  0.05735384  0.91111562  0.62053605    -0.21700
C264        C  0.08588693  0.93922549  0.62097637    -0.21700
C265        C  0.89748634  0.07754761  0.62566504    -0.21700
C266        C  0.92605882  0.10532771  0.63032144    -0.21700
C267        C  0.91951445  0.91081593  0.66360576    -0.22700
C268        C  0.89178123  0.93949371  0.66372465    -0.22700
C269        C  0.08934372  0.07120641  0.67730288    -0.22700
C270        C  0.06161294  0.09952807  0.68080027    -0.22700
C271        C  0.98906848  0.90812675  0.64371937    -0.18100
C272        C  0.08984055  0.00560941  0.64810191    -0.18100
C273        C  0.99270136  0.10532537  0.65913604    -0.18100
C274        C  0.89187564  0.00860688  0.64432202    -0.18100
H275        H  0.06106091  0.88141129  0.61148621     0.14800
H276        H  0.11600128  0.93537166  0.61257811     0.14800
H277        H  0.86812249  0.08231869  0.61491326     0.14800
H278        H  0.92320930  0.13571904  0.62373591     0.14800
H279        H  0.91522065  0.88121170  0.67258241     0.13100
H280        H  0.86179506  0.93644866  0.67290356     0.13100
H281        H  0.11921843  0.07297665  0.68763417     0.13100
H282        H  0.06578338  0.12756693  0.69414975     0.13100
H283        H  0.01290931  0.98314258  0.66026138     0.26400
H284        H  0.96756037  0.02914056  0.66569702     0.26400
N285        N  0.94985476  0.66336665  0.95915287    -0.36400
N286        N  0.95332148  0.64925618  0.04286068    -0.57000
N287        N  0.03820765  0.65422148  0.03915928    -0.36400
N288        N  0.03484239  0.66286828  0.95530679    -0.57000
C289        C  0.91165351  0.65674001  0.96604283     0.27200
C290        C  0.95466085  0.66504727  0.92039796     0.27200
C291        C  0.03321266  0.64337162  0.07618945     0.27200
C292        C  0.07568125  0.64700329  0.03003673     0.27200
C293        C  0.91458519  0.65579907  0.03867667     0.35800
C294        C  0.96170265  0.65354460  0.08100303     0.35800
C295        C  0.02675020  0.67635594  0.91952405     0.35800
C296        C  0.07331042  0.66910901  0.96159851     0.35800
C297        C  0.89172098  0.65434050  0.93095196    -0.21700
C298        C  0.91886906  0.65916726  0.90221615    -0.21700
C299        C  0.06799738  0.62915086  0.09108089    -0.21700
C300        C  0.09477991  0.63101912  0.06173392    -0.21700
C301        C  0.89817186  0.66273634  0.07463143    -0.22700
C302        C  0.92803950  0.66161993  0.10132452    -0.22700
C303        C  0.06040485  0.69068216  0.90274088    -0.22700
C304        C  0.08985935  0.68634912  0.92952342    -0.22700
C305        C  0.89370981  0.65643555  0.00294611    -0.18100
C306        C  0.98976959  0.67455870  0.90107083    -0.18100
C307        C  0.09396760  0.65806291  0.99532510    -0.18100
C308        C  0.99932796  0.65019515  0.09785412    -0.18100
H309        H  0.86067205  0.65046233  0.92639453     0.14800
H310        H  0.91265889  0.65976326  0.87146715     0.14800
H311        H  0.07368776  0.61921594  0.12023116     0.14800
H312        H  0.12519352  0.62280491  0.06391174     0.14800
H313        H  0.86792230  0.66875729  0.08104089     0.13100
H314        H  0.92533001  0.66650093  0.13213428     0.11300
H315        H  0.06336766  0.70320874  0.87426946     0.13100
H316        H  0.12002030  0.69482199  0.92574689     0.13100
H317        H  0.97113281  0.66917310  0.97999419     0.26400
H318        H  0.01800862  0.66919205  0.02234464     0.26400
C319        C  0.78177929  0.99962750  0.63422588    -0.05600
C320        C  0.76952180  0.01571154  0.66959261     0.00400
C321        C  0.79788493  0.03342686  0.69436899    -0.08200
C322        C  0.83744065  0.03005336  0.68481355    -0.05600
C323        C  0.84935495  0.01197934  0.65067199     0.00300
C324        C  0.82128690  0.99832201  0.62385863    -0.08100
C325        C  0.83288663  0.98260707  0.58455235     0.62300
H326        H  0.76035220  0.98704867  0.61488907     0.13000
H327        H  0.85974877  0.04136317  0.70421379     0.13000
C328        C  0.78736508  0.05698821  0.72999037     0.62500
F329        F  0.80098079  0.97962083  0.55983235    -0.22700
F330        F  0.84921645  0.94639941  0.58862915    -0.20000
F331        F  0.85971648  0.00698769  0.56751150    -0.19700
F332        F  0.77612596  0.03284777  0.75964790    -0.19700
F333        F  0.75747490  0.08234088  0.72112358    -0.20100
F334        F  0.81875026  0.07876813  0.74327822    -0.22700
C335        C  0.69417349  0.98838523  0.79324710    -0.05600
C336        C  0.66729767  0.00592834  0.76799677     0.00400
C337        C  0.63316019  0.02334667  0.78326208    -0.08200
C338        C  0.62801982  0.02341146  0.82367394    -0.05600
C339        C  0.65541463  0.00640629  0.84869255     0.00300
C340        C  0.68891963  0.98819856  0.83340111    -0.08100
C341        C  0.71963665  0.96948631  0.85925179     0.62300
H342        H  0.71972500  0.97472456  0.78110713     0.13000
H343        H  0.60249216  0.03673893  0.83624669     0.13000
C344        C  0.60269833  0.04244972  0.75751362     0.62500
F345        F  0.75101362  0.95587667  0.83823790    -0.22700
F346        F  0.70380311  0.93846078  0.87862430    -0.20000
F347        F  0.73362006  0.99613592  0.88585659    -0.19700
F348        F  0.58389442  0.01474738  0.73521272    -0.19700
F349        F  0.62030959  0.06922727  0.73368788    -0.20100
F350        F  0.57464067  0.06154216  0.77887089    -0.22700
C351        C  0.97313174  0.71856876  0.80138186    -0.05600
C352        C  0.98891325  0.68995306  0.77693564     0.00400
C353        C  0.00483688  0.65604146  0.79403870    -0.08200
C354        C  0.00295760  0.65179429  0.83449945    -0.05600
C355        C  0.98831553  0.68097469  0.85846749     0.00300
C356        C  0.97449519  0.71563655  0.84193536    -0.08100
C357        C  0.96378050  0.75023656  0.86690746     0.62300
H358        H  0.96051816  0.74407506  0.78849920     0.13000
H359        H  0.01402570  0.62589319  0.84816048     0.13000
C360        C  0.02520466  0.62500124  0.77055843     0.62500
F361        F  0.95290113  0.78174837  0.84478721    -0.22700
F362        F  0.99569598  0.76096521  0.88930734    -0.20000
F363        F  0.93305564  0.74130608  0.89089564    -0.19700
F364        F  0.05456077  0.64139583  0.74875066    -0.19700
F365        F  0.99851037  0.60659298  0.74655913    -0.20100
F366        F  0.04220768  0.59722606  0.79393165    -0.22700
C367        C  0.00630033  0.85681823  0.68940008    -0.05600
C368        C  0.99203777  0.86643050  0.65271449     0.00400
C369        C  0.98277302  0.83709050  0.62574041    -0.08200
C370        C  0.98632592  0.79833741  0.63739889    -0.05600
C371        C  0.99873390  0.78837097  0.67508995     0.00300
C372        C  0.01051571  0.81834249  0.70113616    -0.08100
C373        C  0.02746458  0.81082448  0.74123484     0.62300
H374        H  0.01376000  0.88014451  0.70911912     0.13000
H375        H  0.97801879  0.77558011  0.61739862     0.13000
C376        C  0.96851899  0.84687881  0.58526877     0.62500
F377        F  0.04531825  0.84338746  0.75666476    -0.22700
F378        F  0.05540588  0.78207452  0.73971436    -0.20000
F379        F  0.99791108  0.80029096  0.76598861    -0.19700
F380        F  0.99469904  0.87142165  0.56753734    -0.19700
F381        F  0.93259100  0.86482484  0.58734302    -0.20100
F382        F  0.96455620  0.81424235  0.56231855    -0.22700
C383        C  0.78225627  0.64855916  0.99582430    -0.05600
C384        C  0.77135017  0.68716650  0.00336799     0.00400
C385        C  0.80108418  0.71385212  0.01477079    -0.08200
C386        C  0.84025709  0.70230053  0.01280172    -0.05600
C387        C  0.85097158  0.66433553  0.00413252     0.00300
C388        C  0.82149932  0.63637819  0.99694923    -0.08100
C389        C  0.82942585  0.59369907  0.99047123     0.62300
H390        H  0.75994870  0.62741846  0.98863150     0.13000
H391        H  0.86333511  0.72299468  0.01878865     0.13000
C392        C  0.79255963  0.75369272  0.03116030     0.62500
F393        F  0.81142337  0.57266847  0.01924985    -0.22700
F394        F  0.86868109  0.58458612  0.99100650    -0.20000
F395        F  0.81399787  0.58245173  0.95505487    -0.19700
F396        F  0.76303523  0.75138546  0.05812018    -0.19700
F397        F  0.78195342  0.77858118  0.00177034    -0.20100
F398        F  0.82495398  0.76922735  0.04987384    -0.22700
C399        C  0.63934502  0.79988028  0.00705656    -0.05600
C400        C  0.66915063  0.78614021  0.98293957     0.00400
C401        C  0.68709600  0.81191659  0.95662663    -0.08200
C402        C  0.67780422  0.85125416  0.95884464    -0.05600
C403        C  0.64902111  0.86518919  0.98386538     0.00300
C404        C  0.62772757  0.83876445  0.00675475    -0.08100
C405        C  0.59280577  0.84998895  0.03108936     0.62300
H406        H  0.62483271  0.77996408  0.02636873     0.13000
H407        H  0.69321289  0.87149266  0.94054241     0.13000
C408        C  0.71483101  0.80015360  0.92466082     0.62500
F409        F  0.56274077  0.82393827  0.02457794    -0.22700
F410        F  0.57869747  0.88632530  0.02235531    -0.20000
F411        F  0.60310272  0.84896513  0.06983604    -0.19700
F412        F  0.71956796  0.76074043  0.92119906    -0.19700
F413        F  0.75092673  0.81697904  0.93135109    -0.20100
F414        F  0.70031843  0.81343065  0.88966240    -0.22700
C415        C  0.80369861  0.99630881  0.27760581    -0.05600
C416        C  0.77792391  0.98687628  0.30789986     0.00400
C417        C  0.79401483  0.97495054  0.34418471    -0.08200
C418        C  0.83485620  0.97474857  0.34883938    -0.05600
C419        C  0.85978091  0.98494222  0.31874457     0.00300
C420        C  0.84438469  0.99474376  0.28216899    -0.08100
C421        C  0.87084425  0.00160434  0.24770050     0.62300
H422        H  0.79188632  0.00467184  0.24975944     0.13000
H423        H  0.84797917  0.96711390  0.37638400     0.13000
C424        C  0.76919841  0.96248587  0.37821682     0.62500
F425        F  0.85011652  0.01388517  0.21547735    -0.22700
F426        F  0.88950473  0.96750327  0.23830604    -0.20000
F427        F  0.89860474  0.02943260  0.25628354    -0.19700
F428        F  0.74287313  0.93428355  0.36669875    -0.19700
F429        F  0.74951140  0.99403817  0.39292441    -0.20100
F430        F  0.79163149  0.94709576  0.40789727    -0.22700
C431        C  0.69970407  0.01902423  0.18706797    -0.05600
C432        C  0.67328586  0.99925557  0.21085770     0.00400
C433        C  0.63894962  0.98280759  0.19413596    -0.08200
C434        C  0.63284505  0.98659410  0.15400923    -0.05600
C435        C  0.66008770  0.00508095  0.13038101     0.00300
C436        C  0.69416031  0.02162953  0.14692462    -0.08100
C437        C  0.72546519  0.04029964  0.12221345     0.62300
H438        H  0.72548751  0.03185559  0.20018130     0.13000
H439        H  0.60718700  0.97410931  0.14031085     0.13000
C440        C  0.60995031  0.95942729  0.21752987     0.62500
F441        F  0.75766771  0.05151518  0.14404120    -0.22700
F442        F  0.71083997  0.07277106  0.10416283    -0.20000
F443        F  0.73795412  0.01433750  0.09449093    -0.19700
F444        F  0.59183330  0.98274747  0.24444619    -0.19700
F445        F  0.62917949  0.92965689  0.23618456    -0.20100
F446        F  0.58099929  0.94328532  0.19435396    -0.22700
C447        C  0.99958855  0.82510661  0.36462273    -0.05600
C448        C  0.01053231  0.85087925  0.33556249     0.00400
C449        C  0.02394503  0.83679983  0.29968728    -0.08200
C450        C  0.02675552  0.79689200  0.29426817    -0.05600
C451        C  0.01553997  0.77052891  0.32294243     0.00300
C452        C  0.00153633  0.78483891  0.35903753    -0.08100
C453        C  0.98780848  0.75849952  0.39134366     0.62300
H454        H  0.98914797  0.83700650  0.39163728     0.13000
H455        H  0.03779559  0.78598286  0.26710297     0.13000
C456        C  0.03515993  0.86388769  0.26713367     0.62500
F457        F  0.97065492  0.77900229  0.42115601    -0.22700
F458        F  0.01929469  0.73868905  0.40673508    -0.20000
F459        F  0.96029060  0.73260228  0.37728411    -0.19700
F460        F  0.04422563  0.84412081  0.23353337    -0.19700
F461        F  0.06751731  0.88509577  0.27816594    -0.20100
F462        F  0.00465771  0.88864996  0.25872703    -0.22700
C463        C  0.01442348  0.70132121  0.19420882    -0.05600
C464        C  0.01231623  0.67053519  0.22087940     0.00400
C465        C  0.00767976  0.63214043  0.20599933    -0.08200
C466        C  0.00347190  0.62680174  0.16568185    -0.05600
C467        C  0.00441603  0.65780028  0.13996973     0.00300
C468        C  0.01100557  0.69556787  0.15405836    -0.08100
C469        C  0.01462313  0.72958497  0.12651164     0.62300
H470        H  0.01890489  0.73040186  0.20487073     0.13000
H471        H  0.99925002  0.59820575  0.15357594     0.13000
C472        C  0.00628720  0.59660453  0.23166333     0.62500
F473        F  0.02187589  0.76389810  0.14594267    -0.22700
F474        F  0.98041815  0.73386787  0.10545244    -0.20000
F475        F  0.04511581  0.72336332  0.10127731    -0.19700
F476        F  0.97468437  0.59911946  0.25618771    -0.19700
F477        F  0.04057537  0.59347120  0.25286277    -0.20100
F478        F  0.00222481  0.56286270  0.21039182    -0.22700
C479        C  0.98389211  0.19240363  0.30175159    -0.05600
C480        C  0.99568297  0.21612653  0.33298862     0.00400
C481        C  0.00432006  0.19811789  0.36921519    -0.08200
C482        C  0.00222107  0.15743296  0.37171336    -0.05600
C483        C  0.99307794  0.13422920  0.33954429     0.00300
C484        C  0.98400888  0.15197112  0.30376339    -0.08100
C485        C  0.97564872  0.13021805  0.26626039     0.62300
H486        H  0.97611187  0.20544899  0.27430633     0.13000
H487        H  0.00897462  0.14301433  0.39869418     0.13000
C488        C  0.01652070  0.22078365  0.40508522     0.62500
F489        F  0.99812782  0.14564871  0.23699791    -0.22700
F490        F  0.93667082  0.13453375  0.25651543    -0.20000
F491        F  0.98398800  0.09128360  0.26811183    -0.19700
F492        F  0.98677342  0.24533930  0.41590051    -0.19700
F493        F  0.05004060  0.24174785  0.39770954    -0.20100
F494        F  0.02439086  0.19693906  0.43625483    -0.22700
C495        C  0.00060857  0.36411666  0.18113928    -0.05600
C496        C  0.00718905  0.33394266  0.15484430     0.00400
C497        C  0.01436439  0.29633485  0.16879918    -0.08200
C498        C  0.01480296  0.29006151  0.20885411    -0.05600
C499        C  0.00764259  0.31976712  0.23580407     0.00300
C500        C  0.00047164  0.35789911  0.22160843    -0.08100
C501        C  0.99115628  0.39177674  0.24816710     0.62300
H502        H  0.99497789  0.39254934  0.16946324     0.13000
H503        H  0.02096287  0.26131525  0.21935359     0.13000
C504        C  0.02194372  0.26281428  0.14135583     0.62500
F505        F  0.98313896  0.42512928  0.22763907    -0.22700
F506        F  0.02261183  0.39972584  0.27229222    -0.20000
F507        F  0.95862729  0.38318829  0.27001356    -0.19700
F508        F  0.05664586  0.26898931  0.12231461    -0.19700
F509        F  0.99202686  0.25946381  0.11446063    -0.20100
F510        F  0.02464595  0.22799503  0.16068303    -0.22700
C511        C  0.98469649  0.29305508  0.80993769    -0.05600
C512        C  0.00334779  0.32123364  0.78744343     0.00400
C513        C  0.02223455  0.35274429  0.80628969    -0.08200
C514        C  0.02093082  0.35496617  0.84703945    -0.05600
C515        C  0.00237785  0.32651899  0.86926312     0.00300
C516        C  0.98454842  0.29453374  0.85043830    -0.08100
C517        C  0.96559654  0.26163949  0.87248010     0.62300
H518        H  0.96985126  0.26941035  0.79541126     0.13000
H519        H  0.03478110  0.37886311  0.86212531     0.13000
C520        C  0.04469027  0.38319294  0.78403386     0.62500
F521        F  0.93061897  0.27382496  0.88769126    -0.22700
F522        F  0.98992939  0.24926648  0.90202470    -0.20000
F523        F  0.95786383  0.23017212  0.84871664    -0.19700
F524        F  0.01913027  0.40505641  0.76206941    -0.19700
F525        F  0.07162534  0.36562336  0.76013431    -0.20100
F526        F  0.06485810  0.40806123  0.80849705    -0.22700
C527        C  0.00859964  0.17254898  0.63990430    -0.05600
C528        C  0.99230227  0.14753814  0.66722955     0.00400
C529        C  0.97776685  0.16256734  0.70230937    -0.08200
C530        C  0.97872178  0.20265548  0.70818477    -0.05600
C531        C  0.99560913  0.22809194  0.68129818     0.00300
C532        C  0.01097092  0.21273332  0.64638452    -0.08100
C533        C  0.03061331  0.23800201  0.61645391     0.62300
H534        H  0.01998605  0.16004457  0.61355663     0.13000
H535        H  0.96711697  0.21436555  0.73477716     0.13000
C536        C  0.96364335  0.13628159  0.73447129     0.62500
F537        F  0.04699082  0.21638011  0.58701307    -0.22700
F538        F  0.06019477  0.25943843  0.63366904    -0.20000
F539        F  0.00337144  0.26245883  0.59995822    -0.19700
F540        F  0.99410018  0.11309291  0.74677775    -0.19700
F541        F  0.93327645  0.11324655  0.72139444    -0.20100
F542        F  0.95046112  0.15700690  0.76610925    -0.22700
C543        C  0.80519120  0.29017648  0.99262511    -0.05600
C544        C  0.78030249  0.32001721  0.00505608     0.00400
C545        C  0.79704598  0.35383278  0.02199859    -0.08200
C546        C  0.83795208  0.35738635  0.02315342    -0.05600
C547        C  0.86225572  0.32767896  0.01029808     0.00300
C548        C  0.84590006  0.29282214  0.99625144    -0.08100
C549        C  0.87118143  0.25800371  0.98683684     0.62300
H550        H  0.79248736  0.26417622  0.98041444     0.13000
H551        H  0.85154602  0.38337189  0.03451026     0.13000
C552        C  0.77262997  0.38550900  0.04022715     0.62500
F553        F  0.84906621  0.22648869  0.97511097    -0.22700
F554        F  0.89238424  0.24746466  0.01934490    -0.20000
F555        F  0.89666925  0.26660855  0.95742456    -0.19700
F556        F  0.74663706  0.36966690  0.06620030    -0.19700
F557        F  0.75248489  0.40532657  0.01183735    -0.20100
F558        F  0.79546178  0.41199355  0.06030076    -0.22700
C559        C  0.63918458  0.21479119  0.98324178    -0.05600
C560        C  0.67319481  0.22604296  0.00359271     0.00400
C561        C  0.69499938  0.19745441  0.02385255    -0.08200
C562        C  0.68553299  0.15850711  0.01799702    -0.05600
C563        C  0.65297425  0.14724261  0.99603743     0.00300
C564        C  0.62782771  0.17566652  0.98049687    -0.08100
C565        C  0.58860955  0.16469445  0.96286663     0.62300
H566        H  0.62167172  0.23676121  0.96924970     0.13000
H567        H  0.70334912  0.13621893  0.03115070     0.13000
C568        C  0.72635115  0.20738956  0.05372366     0.62500
F569        F  0.56621899  0.19692468  0.95471381    -0.22700
F570        F  0.56812637  0.14204301  0.98864962    -0.20000
F571        F  0.59378206  0.14425311  0.92891433    -0.19700
F572        F  0.71331587  0.23674667  0.07757347    -0.19700
F573        F  0.76039902  0.21858029  0.03578014    -0.20100
F574        F  0.73511109  0.17605151  0.07700045    -0.22700
C575        C  0.19032992  0.98725905  0.28383653    -0.05600
C576        C  0.22066805  0.99495528  0.31054040     0.00400
C577        C  0.21053094  0.00580938  0.34916599    -0.08200
C578        C  0.17089581  0.00496223  0.35986789    -0.05600
C579        C  0.14135105  0.99660393  0.33299764     0.00300
C580        C  0.15087428  0.98937055  0.29397125    -0.08100
C581        C  0.11940546  0.98542784  0.26283879     0.62300
H582        H  0.19754341  0.97999262  0.25441321     0.13000
H583        H  0.16235891  0.01163078  0.38923669     0.13000
C584        C  0.24028185  0.02033623  0.37873725     0.62500
F585        F  0.09469719  0.95522318  0.27131288    -0.22700
F586        F  0.13498590  0.97856080  0.22664071    -0.20000
F587        F  0.09794535  0.01913771  0.26086918    -0.19700
F588        F  0.26196995  0.04999232  0.36289021    -0.19700
F589        F  0.26463131  0.99067428  0.39019753    -0.20100
F590        F  0.22256782  0.03472454  0.41164398    -0.22700
C591        C  0.29327794  0.97082205  0.13416230    -0.05600
C592        C  0.32764886  0.98792632  0.12079618     0.00400
C593        C  0.35555287  0.00218774  0.14767312    -0.08200
C594        C  0.34684523  0.00091873  0.18734697    -0.05600
C595        C  0.31239215  0.98375126  0.20105362     0.00300
C596        C  0.28601449  0.96655676  0.17389584    -0.08100
C597        C  0.25095690  0.94234039  0.18527366     0.62300
H598        H  0.27247439  0.95968637  0.11307018     0.13000
H599        H  0.36706549  0.01353847  0.20802307     0.13000
C600        C  0.39495826  0.01721601  0.13452201     0.62500
F601        F  0.24371078  0.91393663  0.15779171    -0.22700
F602        F  0.21840126  0.96566595  0.18762274    -0.20000
F603        F  0.25706442  0.92371779  0.22011082    -0.19700
F604        F  0.39032505  0.04931095  0.11134724    -0.19700
F605        F  0.41379554  0.98865904  0.11379711    -0.20100
F606        F  0.41865474  0.02761359  0.16550137    -0.22700
C607        C  0.35398376  0.99750570  0.77171744    -0.05600
C608        C  0.31992795  0.01780965  0.76130385     0.00400
C609        C  0.29953411  0.03861611  0.79032478    -0.08200
C610        C  0.31205099  0.03530256  0.82902689    -0.05600
C611        C  0.34498438  0.01351477  0.83944123     0.00300
C612        C  0.36763562  0.99611339  0.81017554    -0.08100
C613        C  0.40547030  0.97497766  0.81871725     0.62300
H614        H  0.36999208  0.98216944  0.74956191     0.13000
H615        H  0.29540563  0.04891108  0.85183137     0.13000
C616        C  0.26474348  0.06426716  0.78115537     0.62500
F617        F  0.43151598  0.98024652  0.78878103    -0.22700
F618        F  0.39800792  0.93594987  0.82242627    -0.20000
F619        F  0.42327215  0.98844480  0.85223433    -0.19700
F620        F  0.23206976  0.04169425  0.77418594    -0.19700
F621        F  0.27232484  0.08678893  0.74908893    -0.20100
F622        F  0.25654701  0.08902521  0.81157578    -0.22700
C623        C  0.19097230  0.98972092  0.69020375    -0.05600
C624        C  0.21442057  0.00954060  0.66350784     0.00400
C625        C  0.19648402  0.02678347  0.63051778    -0.08200
C626        C  0.15582509  0.02308090  0.62555780    -0.05600
C627        C  0.13283121  0.00364285  0.65255509     0.00300
C628        C  0.15029905  0.98696657  0.68564143    -0.08100
C629        C  0.12581493  0.96800111  0.71686771     0.62300
H630        H  0.20478410  0.97669122  0.71522084     0.13000
H631        H  0.14125662  0.03632125  0.60104673     0.13000
C632        C  0.21932422  0.05054300  0.60157647     0.62500
F633        F  0.14836457  0.95656787  0.74816392    -0.22700
F634        F  0.10714517  0.93564525  0.70221758    -0.20000
F635        F  0.09812690  0.99373047  0.73019381    -0.19700
F636        F  0.24443836  0.02696087  0.58124472    -0.19700
F637        F  0.24028240  0.07895884  0.62084187    -0.20100
F638        F  0.19511661  0.06856991  0.57493445    -0.22700
C639        C  0.35192878  0.78981034  0.97385673    -0.05600
C640        C  0.31267792  0.77831919  0.96923899     0.00400
C641        C  0.28405613  0.80731931  0.96127374    -0.08200
C642        C  0.29537264  0.84631589  0.96322145    -0.05600
C643        C  0.33433714  0.85734648  0.96870299     0.00300
C644        C  0.36345579  0.82874262  0.97218803    -0.08100
C645        C  0.40648179  0.83919890  0.97368391     0.62300
H646        H  0.37386896  0.76806475  0.97923176     0.13000
H647        H  0.27375707  0.86890393  0.95998978     0.13000
C648        C  0.24216332  0.79838130  0.94908457     0.62500
F649        F  0.42993253  0.80671571  0.97203845    -0.22700
F650        F  0.41517079  0.85881465  0.00753813    -0.20000
F651        F  0.41551531  0.86233852  0.94248382    -0.19700
F652        F  0.22080655  0.78660710  0.98049930    -0.19700
F653        F  0.24152853  0.76992799  0.92092455    -0.20100
F654        F  0.22368881  0.83048713  0.93372607    -0.22700
C655        C  0.15475574  0.68817476  0.01997225    -0.05600
C656        C  0.13718173  0.66079499  0.99538750     0.00400
C657        C  0.16075905  0.63681710  0.97201209    -0.08200
C658        C  0.20069041  0.64560129  0.96916469    -0.05600
C659        C  0.21781983  0.67448162  0.99233671     0.00300
C660        C  0.19527283  0.69331250  0.02079518    -0.08100
C661        C  0.21345958  0.71590835  0.05414107     0.62300
H662        H  0.13666993  0.70478899  0.03949590     0.13000
H663        H  0.21855516  0.63009670  0.94858202     0.13000
C664        C  0.14447494  0.60210025  0.95029198     0.62500
F665        F  0.19159433  0.71116463  0.08729789    -0.22700
F666        F  0.21473748  0.75470611  0.04557163    -0.20000
F667        F  0.25085753  0.70307175  0.06229963    -0.19700
F668        F  0.13179527  0.61303784  0.91390835    -0.19700
F669        F  0.11371748  0.58557523  0.97003910    -0.20100
F670        F  0.17291645  0.57406911  0.94628830    -0.22700
C671        C  0.30306799  0.19649460  0.97157597    -0.05600
C672        C  0.32818269  0.21894387  0.99489303     0.00400
C673        C  0.35913347  0.20085331  0.01549910    -0.08200
C674        C  0.36352589  0.16068748  0.01194120    -0.05600
C675        C  0.33784649  0.13845197  0.98928549     0.00300
C676        C  0.30658478  0.15630823  0.96919235    -0.08100
C677        C  0.27670526  0.13440218  0.94466447     0.62300
H678        H  0.27970306  0.21053288  0.95564450     0.13000
H679        H  0.38702971  0.14604576  0.02702385     0.13000
C680        C  0.38681831  0.22320603  0.04188036     0.62500
F681        F  0.27387496  0.09587030  0.95454324    -0.22700
F682        F  0.28686014  0.13707796  0.90613724    -0.20000
F683        F  0.24001542  0.15035957  0.94931386    -0.19700
F684        F  0.36575671  0.24456025  0.06834285    -0.19700
F685        F  0.40983681  0.24754106  0.02008009    -0.20100
F686        F  0.41140544  0.19895672  0.06245730    -0.22700
C687        C  0.20368486  0.28927975  0.02456640    -0.05600
C688        C  0.22773854  0.31791036  0.00841959     0.00400
C689        C  0.21042531  0.35252997  0.99433455    -0.08200
C690        C  0.16992054  0.35751873  0.99862921    -0.05600
C691        C  0.14632023  0.32839709  0.01394813     0.00300
C692        C  0.16309588  0.29333905  0.02637833    -0.08100
C693        C  0.13813525  0.25984970  0.04018972     0.62300
H694        H  0.21688370  0.26294946  0.03516157     0.13000
H695        H  0.15583129  0.38360395  0.98849526     0.13000
C696        C  0.23336029  0.38288828  0.97241429     0.62500
F697        F  0.16022911  0.22728305  0.04784967    -0.22700
F698        F  0.11078117  0.25016732  0.01210326    -0.20000
F699        F  0.11916906  0.27011838  0.07373399    -0.19700
F700        F  0.25277997  0.36567475  0.94197486    -0.19700
F701        F  0.25991610  0.40090040  0.99682629    -0.20100
F702        F  0.20925148  0.41115492  0.95711092    -0.22700
C703        C  0.97244962  0.60434600  0.59421289    -0.05600
C704        C  0.00983132  0.59126146  0.58343199     0.00400
C705        C  0.04336805  0.60916118  0.60076508    -0.08200
C706        C  0.03773984  0.63821205  0.62886609    -0.05600
C707        C  0.00045892  0.65048292  0.63943261     0.00300
C708        C  0.96724781  0.63400954  0.62153684    -0.08100
C709        C  0.92658987  0.64865192  0.63060110     0.62300
H710        H  0.94692117  0.59142824  0.58075929     0.13000
H711        H  0.06255050  0.65196137  0.64288890     0.13000
C712        C  0.08499106  0.59873493  0.58985521     0.62500
F713        F  0.89789142  0.62767947  0.61138238    -0.22700
F714        F  0.92354266  0.68682681  0.61938029    -0.20000
F715        F  0.91975063  0.64603171  0.66987542    -0.19700
F716        F  0.09071582  0.60619997  0.55101659    -0.19700
F717        F  0.09201887  0.56019197  0.59738837    -0.20100
F718        F  0.11233882  0.62001209  0.61066356    -0.22700
C719        C  0.97356914  0.40676346  0.60121221    -0.05600
C720        C  0.00873829  0.42745403  0.59671405     0.00400
C721        C  0.04009597  0.42044200  0.62315026    -0.08200
C722        C  0.03606667  0.39060486  0.65046567    -0.05600
C723        C  0.00199993  0.36833439  0.65258750     0.00300
C724        C  0.96955372  0.37755967  0.62901634    -0.08100
C725        C  0.93088493  0.35654779  0.63314548     0.62300
H726        H  0.94926337  0.41271679  0.58193017     0.13000
H727        H  0.05991380  0.38379235  0.67005270     0.13000
C728        C  0.07730745  0.44445349  0.62360299     0.62500
F729        F  0.93413416  0.31964009  0.61821803    -0.22700
F730        F  0.90101551  0.37532571  0.61366308    -0.20000
F731        F  0.92068748  0.35442333  0.67174534    -0.19700
F732        F  0.06802873  0.48320259  0.62658765    -0.19700
F733        F  0.09824136  0.43796470  0.59019901    -0.20100
F734        F  0.10133659  0.43531539  0.65466030    -0.22700
C735        C  0.05117754  0.59604806  0.41026436    -0.05600
C736        C  0.01542623  0.57739037  0.41782702     0.00400
C737        C  0.98192948  0.58704125  0.39495353    -0.08200
C738        C  0.98597180  0.61453500  0.36544062    -0.05600
C739        C  0.02128712  0.63355632  0.35903002     0.00300
C740        C  0.05444488  0.62468542  0.38173204    -0.08100
C741        C  0.09270749  0.64613973  0.37647375     0.62300
H742        H  0.07645116  0.58913603  0.42791417     0.13000
H743        H  0.96111538  0.62239753  0.34756519     0.13000
C744        C  0.94190122  0.56901261  0.40107587     0.62500
F745        F  0.12274558  0.62968789  0.39775923    -0.22700
F746        F  0.08838690  0.68397305  0.38857878    -0.20000
F747        F  0.10327893  0.64570335  0.33793613    -0.19700
F748        F  0.92812757  0.57877751  0.43731816    -0.19700
F749        F  0.94434880  0.52930218  0.39751641    -0.20100
F750        F  0.91464395  0.58179661  0.37423717    -0.22700
C751        C  0.98023213  0.39287762  0.42403856    -0.05600
C752        C  0.01514076  0.41373640  0.42999247     0.00400
C753        C  0.04814189  0.40470592  0.40676023    -0.08200
C754        C  0.04531544  0.37377966  0.38021501    -0.05600
C755        C  0.01053243  0.35304357  0.37492912     0.00300
C756        C  0.97706399  0.36344283  0.39605174    -0.08100
C757        C  0.93765237  0.34508512  0.38721518     0.62300
H758        H  0.95490190  0.40034610  0.44099472     0.13000
H759        H  0.07007898  0.36601392  0.36253967     0.13000
C760        C  0.08540357  0.42866357  0.40791417     0.62500
F761        F  0.90808124  0.36155166  0.40869876    -0.22700
F762        F  0.93870493  0.30612113  0.39545128    -0.20000
F763        F  0.92857334  0.34994628  0.34844563    -0.19700
F764        F  0.10393989  0.42462163  0.44335452    -0.19700
F765        F  0.07648652  0.46711077  0.40168726    -0.20100
F766        F  0.11145364  0.41744127  0.37960911    -0.22700
C767        C  0.60612386  0.97158127  0.56967376    -0.05600
C768        C  0.57429794  0.99692119  0.57123094     0.00400
C769        C  0.56969401  0.02148781  0.60366256    -0.08200
C770        C  0.59889260  0.02169589  0.63241056    -0.05600
C771        C  0.63193491  0.99799149  0.62975204     0.00300
C772        C  0.63505825  0.97136022  0.59870059    -0.08100
C773        C  0.66822389  0.94248095  0.59607164     0.62300
H774        H  0.60855382  0.95233190  0.54503887     0.13000
H775        H  0.59653723  0.04111342  0.65691043     0.13000
C776        C  0.53369277  0.04653653  0.60844048     0.62500
F777        F  0.70144433  0.96092496  0.58332268    -0.22700
F778        F  0.65944633  0.91287647  0.57036547    -0.20000
F779        F  0.67550437  0.92599428  0.63181362    -0.19700
F780        F  0.50037210  0.02418345  0.60425460    -0.19700
F781        F  0.53350168  0.07537546  0.58091068    -0.20100
F782        F  0.53261261  0.06388763  0.64455243    -0.22700
C783        C  0.39715547  0.03487714  0.57631569    -0.05600
C784        C  0.41060050  0.99764150  0.56652997     0.00400
C785        C  0.39502089  0.96525526  0.58666484    -0.08200
C786        C  0.36560296  0.97153557  0.61426787    -0.05600
C787        C  0.35240052  0.00862633  0.62335171     0.00300
C788        C  0.36873135  0.04094846  0.60477103    -0.08100
C789        C  0.35602108  0.08165925  0.61492279     0.62300
H790        H  0.40916946  0.05963395  0.56154580     0.13000
H791        H  0.35290550  0.94744065  0.62963507     0.13000
C792        C  0.40962503  0.92433849  0.58035414     0.62500
F793        F  0.37771836  0.10925824  0.59569799    -0.22700
F794        F  0.36055518  0.08802878  0.65423493    -0.20000
F795        F  0.31725526  0.08643110  0.60479491    -0.19700
F796        F  0.44930180  0.92275362  0.58806082    -0.19700
F797        F  0.40220381  0.91286039  0.54263043    -0.20100
F798        F  0.39151876  0.89814268  0.60451892    -0.22700
C799        C  0.63757724  0.96200823  0.37345665    -0.05600
C800        C  0.63980592  0.99408266  0.34903363     0.00400
C801        C  0.61365015  0.02517004  0.35381872    -0.08200
C802        C  0.58499619  0.02246958  0.38250840    -0.05600
C803        C  0.58151117  0.98974916  0.40633292     0.00300
C804        C  0.60869144  0.95899000  0.40206477    -0.08100
C805        C  0.60798040  0.92334205  0.42755464     0.62300
H806        H  0.65826086  0.93879693  0.36920448     0.13000
H807        H  0.56446100  0.04591894  0.38596865     0.13000
C808        C  0.61644984  0.06135592  0.32921754     0.62500
F809        F  0.63914283  0.89903393  0.42030416    -0.22700
F810        F  0.57406792  0.90258391  0.42072576    -0.20000
F811        F  0.61002933  0.93419199  0.46607710    -0.19700
F812        F  0.65424781  0.07554623  0.33032618    -0.19700
F813        F  0.59187272  0.09019803  0.34223571    -0.20100
F814        F  0.60615448  0.05292088  0.29137393    -0.22700
C815        C  0.42202363  0.00701188  0.36612314    -0.05600
C816        C  0.41516253  0.98531425  0.39954373     0.00400
C817        C  0.38181083  0.96109184  0.40130393    -0.08200
C818        C  0.35553484  0.96086925  0.36982358    -0.05600
C819        C  0.36191818  0.98308436  0.33652187     0.00300
C820        C  0.39652494  0.00556739  0.33396209    -0.08100
C821        C  0.40678131  0.02796638  0.29779409     0.62300
H822        H  0.44820687  0.02457294  0.36516595     0.13000
H823        H  0.32934313  0.94335532  0.37105203     0.13000
C824        C  0.37308599  0.93663841  0.43667121     0.62500
F825        F  0.44055315  0.04957136  0.30270739    -0.22700
F826        F  0.37683720  0.05296490  0.28820205    -0.20000
F827        F  0.41291814  0.00240576  0.26765555    -0.19700
F828        F  0.37274758  0.95969500  0.46943639    -0.19700
F829        F  0.40115752  0.90830794  0.44088141    -0.20100
F830        F  0.33714882  0.91843315  0.43367017    -0.22700
C831        C  0.56966003  0.62079392  0.00601391    -0.05600
C832        C  0.57959426  0.58648825  0.98723587     0.00400
C833        C  0.61635674  0.58280461  0.96932394    -0.08200
C834        C  0.64240890  0.61421070  0.97129558    -0.05600
C835        C  0.63250685  0.64897468  0.98998168     0.00300
C836        C  0.59499244  0.65265140  0.00707197    -0.08100
C837        C  0.58101496  0.68957308  0.02630666     0.62300
H838        H  0.54110369  0.62264183  0.01913851     0.13000
H839        H  0.67082813  0.61188851  0.95799057     0.13000
C840        C  0.62862382  0.54536421  0.94991695     0.62500
F841        F  0.54548450  0.68454146  0.04454151    -0.22700
F842        F  0.57604228  0.71790107  0.99864816    -0.20000
F843        F  0.60780190  0.70172543  0.05392422    -0.19700
F844        F  0.60540273  0.53828863  0.91772862    -0.19700
F845        F  0.62486887  0.51517649  0.97570267    -0.20100
F846        F  0.66707768  0.54657823  0.93796914    -0.22700
C847        C  0.61732310  0.36757700  0.02955538    -0.05600
C848        C  0.64380628  0.36591916  0.99893345     0.00400
C849        C  0.64188572  0.39388153  0.96923029    -0.08200
C850        C  0.61235146  0.42194840  0.97068792    -0.05600
C851        C  0.58496366  0.42318437  0.00072576     0.00300
C852        C  0.58781916  0.39580956  0.03123299    -0.08100
C853        C  0.55925102  0.39493408  0.06459531     0.62300
H854        H  0.61989932  0.34614861  0.05218007     0.13000
H855        H  0.61019271  0.44318185  0.94786522     0.13000
C856        C  0.66968169  0.39325398  0.93522737     0.62500
F857        F  0.56545080  0.36348007  0.08852457    -0.22700
F858        F  0.52145854  0.39251315  0.05038931    -0.20000
F859        F  0.56342122  0.42796906  0.08683525    -0.19700
F860        F  0.66916291  0.35716474  0.91800535    -0.19700
F861        F  0.70714511  0.40166484  0.94773895    -0.20100
F862        F  0.65948970  0.42014683  0.90738063    -0.22700
C863        C  0.35015431  0.60787109  0.99681064    -0.05600
C864        C  0.35578733  0.64079772  0.97372513     0.00400
C865        C  0.39013748  0.64319938  0.95093844    -0.08200
C866        C  0.41790339  0.61308581  0.95324046    -0.05600
C867        C  0.41285887  0.58129833  0.97784510     0.00300
C868        C  0.37794328  0.57811435  0.99932228    -0.08100
C869        C  0.36944292  0.54297584  0.02417310     0.62300
H870        H  0.32388649  0.60590361  0.01389078     0.13000
H871        H  0.44467755  0.61489134  0.93688773     0.13000
C872        C  0.39813499  0.67730654  0.92465407     0.62500
F873        F  0.33166851  0.54325098  0.03811751    -0.22700
F874        F  0.39456931  0.54218832  0.05565637    -0.20000
F875        F  0.37404092  0.50965587  0.00249100    -0.19700
F876        F  0.40767388  0.70925451  0.94690157    -0.19700
F877        F  0.36564383  0.68529815  0.90202046    -0.20100
F878        F  0.42893551  0.67014233  0.89999163    -0.22700
C879        C  0.41028152  0.40287651  0.02935898    -0.05600
C880        C  0.42025644  0.41621872  0.99223908     0.00400
C881        C  0.40339257  0.39787560  0.95904616    -0.08200
C882        C  0.37645389  0.36783464  0.96474723    -0.05600
C883        C  0.36635354  0.35550217  0.00176332     0.00300
C884        C  0.38375015  0.37257109  0.03471753    -0.08100
C885        C  0.37559944  0.35793862  0.07520984     0.62300
H886        H  0.42392308  0.41597158  0.05454317     0.13000
H887        H  0.36253465  0.35373726  0.94020894     0.13000
C888        C  0.41280435  0.40962040  0.91778910     0.62500
F889        F  0.33583637  0.35616849  0.08151004    -0.22700
F890        F  0.39189153  0.38170342  0.10337525    -0.20000
F891        F  0.39140246  0.32149533  0.07935140    -0.19700
F892        F  0.40268552  0.44782893  0.91209738    -0.19700
F893        F  0.39249985  0.38767128  0.89071132    -0.20100
F894        F  0.45218973  0.40455774  0.91086460    -0.22700
loop_ 
_geom_bond_atom_site_label_1 
_geom_bond_atom_site_label_2 
_geom_bond_distance 
_geom_bond_site_symmetry_2 
_ccdc_geom_bond_type 
O1            V9   1.905       .  S
O1           C11   1.264   1_554  A
O2            V9   1.900       .  S
O2           C12   1.264   1_554  A
O3            V9   1.889       .  S
O3           C13   1.264   1_554  A
O4            V9   1.892       .  S
O4           C14   1.263   1_554  A
O5           V10   1.891       .  S
O5           C14   1.261       .  A
O6           V10   1.893       .  S
O6           C13   1.261       .  A
O7           V10   1.913       .  S
O7           C12   1.267       .  A
O8           V10   1.902       .  S
O8           C11   1.267       .  A
V9           V10   2.084   1_554  T
C11         C851   1.490   1_556  S
C12         C867   1.489       .  S
C13         C880   1.487       .  S
C14         C832   1.468       .  S
O15          V23   1.905       .  S
O15          C25   1.266   1_545  A
O16          V23   1.898       .  S
O16          C26   1.264   1_545  A
O17          V23   1.894       .  S
O17          C27   1.264   1_545  A
O18          V23   1.895       .  S
O18          C28   1.265   1_545  A
O19          V24   1.905       .  S
O19          C28   1.265       .  A
O20          V24   1.904       .  S
O20          C27   1.265       .  A
O21          V24   1.890       .  S
O21          C26   1.261       .  A
O22          V24   1.891       .  S
O22          C25   1.260       .  A
V23          V24   2.084   1_545  T
C25         C816   1.478       .  S
C26         C768   1.472       .  S
C27         C803   1.491       .  S
C28         C784   1.499       .  S
O29          V37   1.903       .  S
O29          C39   1.266   1_655  A
O30          V37   1.900       .  S
O30          C40   1.267   1_655  A
O31          V37   1.891       .  S
O31          C41   1.261   1_655  A
O32          V37   1.896       .  S
O32          C42   1.265   1_655  A
O33          V38   1.905       .  S
O33          C42   1.265       .  A
O34          V38   1.904       .  S
O34          C41   1.267       .  A
O35          V38   1.902       .  S
O35          C40   1.263       .  A
O36          V38   1.902       .  S
O36          C39   1.264       .  A
V37          V38   2.079   1_655  T
C39         C752   1.495       .  S
C40         C704   1.500       .  S
C41         C736   1.493       .  S
C42         C720   1.495       .  S
C43         C883   1.462       .  S
C43          N44   1.356       .  A
C43          N48   1.359       .  A
N44          C45   1.354   1_554  A
C45         C672   1.478       .  S
C45          N46   1.355   1_556  A
N46          C47   1.356       .  A
C47         C688   1.487       .  S
C47          N48   1.356       .  A
C49         C864   1.499       .  S
C49          N50   1.360       .  A
C49          N54   1.363       .  A
N50          C51   1.355       .  A
C51         C659   1.470       .  S
C51          N52   1.354       .  A
N52          C53   1.354       .  A
C53         C640   1.498       .  S
C53          N54   1.366       .  A
C55         C787   1.473       .  S
C55          N56   1.358       .  A
C55          N60   1.358       .  A
N56          C57   1.359       .  A
C57         C608   1.489       .  S
C57          N58   1.358       .  A
N58          C59   1.360       .  A
C59         C624   1.490       .  S
C59          N60   1.358       .  A
N61          C66   1.355       .  A
N61          C65   1.357       .  A
N61          H93   1.039       .  S
N62          C69   1.347       .  A
N62          C70   1.348       .  A
N63          C68   1.351       .  A
N63          C67   1.351       .  A
N63          H94   1.040       .  S
N64          C71   1.351       .  A
N64          C72   1.354       .  A
C65          C73   1.386       .  A
C65          C81   1.419   1_565  A
C66          C82   1.420       .  A
C66          C74   1.388       .  A
C67          C75   1.388       .  A
C67          C84   1.411   1_554  A
C68          C83   1.409   1_545  A
C68          C76   1.387       .  A
C69          C81   1.408       .  A
C69          C77   1.386       .  A
C70          C84   1.407       .  A
C70          C78   1.386       .  A
C71          C79   1.388       .  A
C71          C82   1.416   1_554  A
C72          C80   1.384       .  A
C72          C83   1.413       .  A
C73          C74   1.373       .  A
C73          H85   1.082       .  S
C74          H86   1.082       .  S
C75          C76   1.373       .  A
C75          H87   1.082       .  S
C76          H88   1.082       .  S
C77          C78   1.373       .  A
C77          H89   1.082       .  S
C78          H90   1.083       .  S
C79          C80   1.371       .  A
C79          H91   1.082       .  S
C80          H92   1.082       .  S
C81         C611   1.493       .  S
C82         C643   1.491       .  S
C83         C592   1.490       .  S
C84         C675   1.479       .  S
C95         C819   1.487       .  S
C95          N96   1.358       .  A
C95         N100   1.359       .  A
N96          C97   1.354       .  A
C97         C576   1.500       .  S
C97          N98   1.362       .  A
N98          C99   1.359       .  A
C99         C595   1.490       .  S
C99         N100   1.363       .  A
C101        C848   1.478       .  S
C101        N102   1.358       .  A
C101        N106   1.364   1_556  A
N102        C103   1.356   1_556  A
C103        C544   1.490       .  S
C103        N104   1.355       .  A
N104        C105   1.353       .  A
C105        C560   1.489       .  S
C105        N106   1.361       .  A
C107        C723   1.474       .  S
C107        N108   1.362   1_455  A
C107        N112   1.359       .  A
N108        C109   1.359       .  A
C109        C531   1.493       .  S
C109        N110   1.354   1_655  A
N110        C111   1.355       .  A
C111        C512   1.489       .  S
C111        N112   1.357       .  A
N113        C118   1.353       .  A
N113        C117   1.348       .  A
N113        H145   1.038       .  S
N114        C121   1.351       .  A
N114        C122   1.353       .  A
N115        C120   1.349       .  A
N115        C119   1.353       .  A
N115        H146   1.036       .  S
N116        C123   1.353       .  A
N116        C124   1.349       .  A
C117        C125   1.388       .  A
C117        C133   1.411   1_556  A
C118        C134   1.413   1_655  A
C118        C126   1.386       .  A
C119        C127   1.386       .  A
C119        C136   1.414       .  A
C120        C135   1.415       .  A
C120        C128   1.388       .  A
C121        C133   1.413       .  A
C121        C129   1.386       .  A
C122        C136   1.416   1_655  A
C122        C130   1.386       .  A
C123        C131   1.385       .  A
C123        C134   1.414       .  A
C124        C132   1.388       .  A
C124        C135   1.416   1_556  A
C125        C126   1.377       .  A
C125        H137   1.082       .  S
C126        H138   1.082       .  S
C127        C128   1.378       .  A
C127        H139   1.082       .  S
C128        H140   1.082       .  S
C129        C130   1.373       .  A
C129        H141   1.082       .  S
C130        H142   1.082       .  S
C131        C132   1.372       .  A
C131        H143   1.082       .  S
C132        H144   1.082       .  S
C133        C547   1.482       .  S
C134        C515   1.495       .  S
C135        C691   1.481       .  S
C136        C496   1.493       .  S
C147        C755   1.474       .  S
C147        N148   1.357       .  A
C147        N152   1.360       .  A
N148        C149   1.355       .  A
C149        C499   1.503       .  S
C149        N150   1.361       .  A
N150        C151   1.362       .  A
C151        C480   1.507   1_455  S
C151        N152   1.359       .  A
C153        C739   1.468       .  S
C153        N154   1.353       .  A
C153        N158   1.358       .  A
N154        C155   1.353       .  A
C155        C451   1.488       .  S
C155        N156   1.361       .  A
N156        C157   1.359       .  A
C157        C464   1.506       .  S
C157        N158   1.357       .  A
C159        C800   1.473       .  S
C159        N160   1.359       .  A
C159        N164   1.356       .  A
N160        C161   1.358       .  A
C161        C416   1.497       .  S
C161        N162   1.358       .  A
N162        C163   1.356       .  A
C163        C432   1.485       .  S
C163        N164   1.353       .  A
N165        C170   1.348       .  A
N165        C169   1.350       .  A
N165        H197   1.034       .  S
N166        C173   1.349       .  A
N166        C174   1.348       .  A
N167        C172   1.354       .  A
N167        C171   1.351       .  A
N167        H198   1.036       .  S
N168        C175   1.351       .  A
N168        C176   1.351       .  A
C169        C177   1.388       .  A
C169        C185   1.413       .  A
C170        C186   1.411       .  A
C170        C178   1.386       .  A
C171        C179   1.388       .  A
C171        C188   1.416   1_545  A
C172        C187   1.417       .  A
C172        C180   1.385       .  A
C173        C185   1.412   1_655  A
C173        C181   1.387       .  A
C174        C188   1.409       .  A
C174        C182   1.387       .  A
C175        C183   1.385       .  A
C175        C186   1.412   1_545  A
C176        C184   1.386       .  A
C176        C187   1.414   1_455  A
C177        C178   1.378       .  A
C177        H189   1.082       .  S
C178        H190   1.082       .  S
C179        C180   1.377       .  A
C179        H191   1.082       .  S
C180        H192   1.082       .  S
C181        C182   1.372       .  A
C181        H193   1.082       .  S
C182        H194   1.082       .  S
C183        C184   1.371       .  A
C183        H195   1.082       .  S
C184        H196   1.082       .  S
C185        C448   1.482       .  S
C186        C579   1.484       .  S
C187        C483   1.492       .  S
C188        C419   1.480       .  S
C199        C835   1.486       .  S
C199        N200   1.363       .  A
C199        N204   1.356       .  A
N200        C201   1.362       .  A
C201        C384   1.501   1_556  S
C201        N202   1.359       .  A
N202        C203   1.359       .  A
C203        C400   1.478       .  S
C203        N204   1.355       .  A
C205        C707   1.473   1_655  S
C205        N206   1.360       .  A
C205        N210   1.358       .  A
N206        C207   1.359       .  A
C207        C352   1.498       .  S
C207        N208   1.356       .  A
N208        C209   1.355       .  A
C209        C371   1.491       .  S
C209        N210   1.360       .  A
C211        C771   1.474   1_545  S
C211        N212   1.358       .  A
C211        N216   1.358       .  A
N212        C213   1.360       .  A
C213        C320   1.490       .  S
C213        N214   1.354       .  A
N214        C215   1.357       .  A
C215        C336   1.483       .  S
C215        N216   1.355       .  A
N217        C222   1.350       .  A
N217        C221   1.349       .  A
N217        H249   1.039       .  S
N218        C225   1.350       .  A
N218        C226   1.350       .  A
N219        C224   1.350       .  A
N219        C223   1.350       .  A
N219        H250   1.038       .  S
N220        C227   1.350       .  A
N220        C228   1.350       .  A
C221        C229   1.386       .  A
C221        C237   1.408   1_565  A
C222        C238   1.413       .  A
C222        C230   1.388       .  A
C223        C231   1.388       .  A
C223        C240   1.413   1_554  A
C224        C239   1.408       .  A
C224        C232   1.386       .  A
C225        C237   1.412       .  A
C225        C233   1.386       .  A
C226        C240   1.412       .  A
C226        C234   1.387       .  A
C227        C235   1.386       .  A
C227        C238   1.412   1_554  A
C228        C236   1.386       .  A
C228        C239   1.411   1_565  A
C229        C230   1.379       .  A
C229        H241   1.082       .  S
C230        H242   1.082       .  S
C231        C232   1.378       .  A
C231        H243   1.082       .  S
C232        H244   1.082       .  S
C233        C234   1.377       .  A
C233        H245   1.082       .  S
C234        H246   1.082       .  S
C235        C236   1.375       .  A
C235        H247   1.082       .  S
C236        H248   1.082       .  S
C237        C339   1.485       .  S
C238        C403   1.489       .  S
C239        C435   1.484       .  S
C240        C563   1.487       .  S
N251        C256   1.350       .  A
N251        C255   1.349       .  A
N251        H283   1.037       .  S
N252        C259   1.350       .  A
N252        C260   1.347       .  A
N253        C258   1.352       .  A
N253        C257   1.348       .  A
N253        H284   1.039       .  S
N254        C261   1.347       .  A
N254        C262   1.350       .  A
C255        C263   1.386       .  A
C255        C271   1.409   1_455  A
C256        C272   1.411   1_565  A
C256        C264   1.387       .  A
C257        C265   1.387       .  A
C257        C274   1.411       .  A
C258        C273   1.409       .  A
C258        C266   1.385       .  A
C259        C271   1.409       .  A
C259        C267   1.386       .  A
C260        C274   1.409   1_565  A
C260        C268   1.387       .  A
C261        C269   1.387       .  A
C261        C272   1.409       .  A
C262        C270   1.384       .  A
C262        C273   1.405   1_455  A
C263        C264   1.378       .  A
C263        H275   1.082       .  S
C264        H276   1.082       .  S
C265        C266   1.379       .  A
C265        H277   1.082       .  S
C266        H278   1.082       .  S
C267        C268   1.376       .  A
C267        H279   1.082       .  S
C268        H280   1.082       .  S
C269        C270   1.373       .  A
C269        H281   1.082       .  S
C270        H282   1.082       .  S
C271        C368   1.482       .  S
C272        C627   1.481       .  S
C273        C528   1.488       .  S
C274        C323   1.479       .  S
N285        C290   1.352       .  A
N285        C289   1.351       .  A
N285        H317   1.039       .  S
N286        C293   1.353       .  A
N286        C294   1.354       .  A
N287        C292   1.348       .  A
N287        C291   1.347       .  A
N287        H318   1.040       .  S
N288        C295   1.350       .  A
N288        C296   1.350       .  A
C289        C297   1.389       .  A
C289        C305   1.421   1_556  A
C290        C306   1.419       .  A
C290        C298   1.387       .  A
C291        C299   1.386       .  A
C291        C308   1.406   1_455  A
C292        C307   1.412   1_554  A
C292        C300   1.389       .  A
C293        C305   1.422       .  A
C293        C301   1.389       .  A
C294        C308   1.415       .  A
C294        C302   1.384       .  A
C295        C303   1.386       .  A
C295        C306   1.414   1_455  A
C296        C304   1.386       .  A
C296        C307   1.413       .  A
C297        C298   1.377       .  A
C297        H309   1.082       .  S
C298        H310   1.082       .  S
C299        C300   1.375       .  A
C299        H311   1.082       .  S
C300        H312   1.082       .  S
C301        C302   1.372       .  A
C301        H313   1.082       .  S
C302        H314   1.082       .  S
C303        C304   1.372       .  A
C303        H315   1.082       .  S
C304        H316   1.082       .  S
C305        C387   1.491       .  S
C306        C355   1.490       .  S
C307        C656   1.483       .  S
C308        C467   1.487   1_655  S
C319        C320   1.409   1_565  A
C319        C324   1.403       .  A
C319        H326   1.078       .  S
C320        C321   1.426       .  A
C321        C322   1.402       .  A
C321        C328   1.521       .  S
C322        C323   1.398       .  A
C322        H327   1.084       .  S
C323        C324   1.409   1_545  A
C324        C325   1.518       .  S
C325        F329   1.385       .  S
C325        F330   1.381       .  S
C325        F331   1.383   1_565  S
C328        F332   1.382       .  S
C328        F333   1.383       .  S
C328        F334   1.386       .  S
C335        C336   1.404   1_565  A
C335        C340   1.401       .  A
C335        H342   1.083       .  S
C336        C337   1.421       .  A
C337        C338   1.409       .  A
C337        C344   1.520       .  S
C338        C339   1.403       .  A
C338        H343   1.083       .  S
C339        C340   1.416   1_545  A
C340        C341   1.522       .  S
C341        F345   1.385       .  S
C341        F346   1.381       .  S
C341        F347   1.382       .  S
C344        F348   1.383       .  S
C344        F349   1.383       .  S
C344        F350   1.385       .  S
C351        C352   1.412       .  A
C351        C356   1.406       .  A
C351        H358   1.080       .  S
C352        C353   1.424   1_655  A
C353        C354   1.409       .  A
C353        C360   1.519       .  S
C354        C355   1.401   1_455  A
C354        H359   1.083       .  S
C355        C356   1.412       .  A
C356        C357   1.522       .  S
C357        F361   1.385       .  S
C357        F362   1.383       .  S
C357        F363   1.380       .  S
C360        F364   1.384       .  S
C360        F365   1.382   1_455  S
C360        F366   1.385       .  S
C367        C368   1.397   1_455  A
C367        C372   1.402       .  A
C367        H374   1.084       .  S
C368        C369   1.410       .  A
C369        C370   1.408       .  A
C369        C376   1.517       .  S
C370        C371   1.411       .  A
C370        H375   1.082       .  S
C371        C372   1.427   1_655  A
C372        C373   1.522       .  S
C373        F377   1.385       .  S
C373        F378   1.384       .  S
C373        F379   1.380   1_455  S
C376        F380   1.383       .  S
C376        F381   1.382       .  S
C376        F382   1.384       .  S
C383        C384   1.413   1_556  A
C383        C388   1.410       .  A
C383        H390   1.084       .  S
C384        C385   1.426       .  A
C385        C386   1.403       .  A
C385        C392   1.520       .  S
C386        C387   1.398       .  A
C386        H391   1.084       .  S
C387        C388   1.417   1_554  A
C388        C389   1.520       .  S
C389        F393   1.383   1_556  S
C389        F394   1.382       .  S
C389        F395   1.383       .  S
C392        F396   1.383       .  S
C392        F397   1.381       .  S
C392        F398   1.386       .  S
C399        C400   1.406   1_554  A
C399        C404   1.405       .  A
C399        H406   1.084       .  S
C400        C401   1.420       .  A
C401        C402   1.402       .  A
C401        C408   1.518       .  S
C402        C403   1.402       .  A
C402        H407   1.085       .  S
C403        C404   1.417   1_556  A
C404        C405   1.519       .  S
C405        F409   1.384       .  S
C405        F410   1.383       .  S
C405        F411   1.383       .  S
C408        F412   1.380       .  S
C408        F413   1.383       .  S
C408        F414   1.384       .  S
C415        C416   1.414       .  A
C415        C420   1.402       .  A
C415        H422   1.082   1_565  S
C416        C417   1.428       .  A
C417        C418   1.407       .  A
C417        C424   1.520       .  S
C418        C419   1.397       .  A
C418        H423   1.083       .  S
C419        C420   1.409       .  A
C420        C421   1.522   1_565  S
C421        F425   1.384       .  S
C421        F426   1.383   1_545  S
C421        F427   1.382       .  S
C424        F428   1.383       .  S
C424        F429   1.383       .  S
C424        F430   1.385       .  S
C431        C432   1.406   1_545  A
C431        C436   1.402       .  A
C431        H438   1.083       .  S
C432        C433   1.423       .  A
C433        C434   1.407       .  A
C433        C440   1.520       .  S
C434        C435   1.401   1_565  A
C434        H439   1.083       .  S
C435        C436   1.414       .  A
C436        C437   1.521       .  S
C437        F441   1.385       .  S
C437        F442   1.381       .  S
C437        F443   1.383       .  S
C440        F444   1.382       .  S
C440        F445   1.383       .  S
C440        F446   1.385       .  S
C447        C448   1.399   1_655  A
C447        C452   1.409   1_655  A
C447        H454   1.083       .  S
C448        C449   1.412       .  A
C449        C450   1.398       .  A
C449        C456   1.519       .  S
C450        C451   1.405       .  A
C450        H455   1.082       .  S
C451        C452   1.428       .  A
C452        C453   1.521   1_455  S
C453        F457   1.385       .  S
C453        F458   1.383   1_655  S
C453        F459   1.384       .  S
C456        F460   1.384       .  S
C456        F461   1.378       .  S
C456        F462   1.383       .  S
C463        C464   1.414       .  A
C463        C468   1.405       .  A
C463        H470   1.081       .  S
C464        C465   1.432       .  A
C465        C466   1.411       .  A
C465        C472   1.521       .  S
C466        C467   1.397       .  A
C466        H471   1.083   1_455  S
C467        C468   1.411       .  A
C468        C469   1.523       .  S
C469        F473   1.384       .  S
C469        F474   1.382   1_455  S
C469        F475   1.383       .  S
C472        F476   1.383   1_455  S
C472        F477   1.383       .  S
C472        F478   1.385       .  S
C479        C480   1.410       .  A
C479        C484   1.402       .  A
C479        H486   1.084       .  S
C480        C481   1.430   1_655  A
C481        C482   1.414       .  A
C481        C488   1.520       .  S
C482        C483   1.402   1_455  A
C482        H487   1.083       .  S
C483        C484   1.415       .  A
C484        C485   1.522       .  S
C485        F489   1.384       .  S
C485        F490   1.383       .  S
C485        F491   1.381       .  S
C488        F492   1.382   1_455  S
C488        F493   1.383       .  S
C488        F494   1.385       .  S
C495        C496   1.402       .  A
C495        C500   1.416       .  A
C495        H502   1.083   1_455  S
C496        C497   1.412       .  A
C497        C498   1.402       .  A
C497        C504   1.521       .  S
C498        C499   1.409       .  A
C498        H503   1.082       .  S
C499        C500   1.432       .  A
C500        C501   1.523   1_455  S
C501        F505   1.385       .  S
C501        F506   1.383   1_655  S
C501        F507   1.384       .  S
C504        F508   1.380       .  S
C504        F509   1.382   1_455  S
C504        F510   1.384       .  S
C511        C512   1.406   1_655  A
C511        C516   1.401       .  A
C511        H518   1.083       .  S
C512        C513   1.421       .  A
C513        C514   1.411       .  A
C513        C520   1.519       .  S
C514        C515   1.406       .  A
C514        H519   1.083       .  S
C515        C516   1.417   1_455  A
C516        C517   1.520       .  S
C517        F521   1.379       .  S
C517        F522   1.382       .  S
C517        F523   1.386       .  S
C520        F524   1.383       .  S
C520        F525   1.384       .  S
C520        F526   1.384       .  S
C527        C528   1.402   1_455  A
C527        C532   1.411       .  A
C527        H534   1.083       .  S
C528        C529   1.413       .  A
C529        C530   1.403       .  A
C529        C536   1.521       .  S
C530        C531   1.410       .  A
C530        H535   1.082       .  S
C531        C532   1.422   1_655  A
C532        C533   1.518       .  S
C533        F537   1.385       .  S
C533        F538   1.384       .  S
C533        F539   1.382       .  S
C536        F540   1.383       .  S
C536        F541   1.381       .  S
C536        F542   1.385       .  S
C543        C544   1.409   1_556  A
C543        C548   1.402       .  A
C543        H550   1.082       .  S
C544        C545   1.425       .  A
C545        C546   1.406       .  A
C545        C552   1.519       .  S
C546        C547   1.398       .  A
C546        H551   1.083       .  S
C547        C548   1.412   1_554  A
C548        C549   1.522       .  S
C549        F553   1.385       .  S
C549        F554   1.383   1_556  S
C549        F555   1.379       .  S
C552        F556   1.384       .  S
C552        F557   1.380       .  S
C552        F558   1.385       .  S
C559        C560   1.409   1_556  A
C559        C564   1.412       .  A
C559        H566   1.083       .  S
C560        C561   1.424       .  A
C561        C562   1.400       .  A
C561        C568   1.521       .  S
C562        C563   1.398   1_554  A
C562        H567   1.084       .  S
C563        C564   1.414       .  A
C564        C565   1.517       .  S
C565        F569   1.384       .  S
C565        F570   1.384       .  S
C565        F571   1.381       .  S
C568        F572   1.384       .  S
C568        F573   1.381       .  S
C568        F574   1.385       .  S
C575        C576   1.408       .  A
C575        C580   1.401       .  A
C575        H582   1.078       .  S
C576        C577   1.431   1_565  A
C577        C578   1.410       .  A
C577        C584   1.521       .  S
C578        C579   1.397   1_545  A
C578        H583   1.083       .  S
C579        C580   1.412       .  A
C580        C581   1.522       .  S
C581        F585   1.378       .  S
C581        F586   1.384       .  S
C581        F587   1.383   1_565  S
C584        F588   1.384       .  S
C584        F589   1.382   1_545  S
C584        F590   1.385       .  S
C591        C592   1.399       .  A
C591        C596   1.406       .  A
C591        H598   1.084       .  S
C592        C593   1.414   1_565  A
C593        C594   1.407       .  A
C593        C600   1.519       .  S
C594        C595   1.407   1_545  A
C594        H599   1.081       .  S
C595        C596   1.425       .  A
C596        C597   1.519       .  S
C597        F601   1.386       .  S
C597        F602   1.381       .  S
C597        F603   1.383       .  S
C600        F604   1.381       .  S
C600        F605   1.383   1_545  S
C600        F606   1.384       .  S
C607        C608   1.408   1_565  A
C607        C612   1.406       .  A
C607        H614   1.084       .  S
C608        C609   1.422       .  A
C609        C610   1.406       .  A
C609        C616   1.520       .  S
C610        C611   1.404       .  A
C610        H615   1.084       .  S
C611        C612   1.414   1_545  A
C612        C613   1.517       .  S
C613        F617   1.384       .  S
C613        F618   1.382       .  S
C613        F619   1.383       .  S
C616        F620   1.383       .  S
C616        F621   1.384       .  S
C616        F622   1.385       .  S
C623        C624   1.408   1_565  A
C623        C628   1.404       .  A
C623        H630   1.083       .  S
C624        C625   1.424       .  A
C625        C626   1.407       .  A
C625        C632   1.519       .  S
C626        C627   1.400       .  A
C626        H631   1.083       .  S
C627        C628   1.412   1_545  A
C628        C629   1.522       .  S
C629        F633   1.383       .  S
C629        F634   1.381       .  S
C629        F635   1.383       .  S
C632        F636   1.382       .  S
C632        F637   1.382       .  S
C632        F638   1.385       .  S
C639        C640   1.409       .  A
C639        C644   1.406       .  A
C639        H646   1.081       .  S
C640        C641   1.431       .  A
C641        C642   1.406       .  A
C641        C648   1.523       .  S
C642        C643   1.398       .  A
C642        H647   1.084       .  S
C643        C644   1.412       .  A
C644        C645   1.517       .  S
C645        F649   1.385       .  S
C645        F650   1.381   1_556  S
C645        F651   1.383       .  S
C648        F652   1.377       .  S
C648        F653   1.383       .  S
C648        F654   1.386       .  S
C655        C656   1.402   1_554  A
C655        C660   1.399       .  A
C655        H662   1.084       .  S
C656        C657   1.416       .  A
C657        C658   1.405       .  A
C657        C664   1.518       .  S
C658        C659   1.403       .  A
C658        H663   1.084       .  S
C659        C660   1.414   1_556  A
C660        C661   1.519       .  S
C661        F665   1.384       .  S
C661        F666   1.378       .  S
C661        F667   1.384       .  S
C664        F668   1.381       .  S
C664        F669   1.384       .  S
C664        F670   1.384       .  S
C671        C672   1.405       .  A
C671        C676   1.400       .  A
C671        H678   1.084       .  S
C672        C673   1.420   1_556  A
C673        C674   1.405       .  A
C673        C680   1.519       .  S
C674        C675   1.400   1_554  A
C674        H679   1.083       .  S
C675        C676   1.416       .  A
C676        C677   1.523       .  S
C677        F681   1.382       .  S
C677        F682   1.383       .  S
C677        F683   1.384       .  S
C680        F684   1.383       .  S
C680        F685   1.383       .  S
C680        F686   1.385       .  S
C687        C688   1.408       .  A
C687        C692   1.399       .  A
C687        H694   1.082       .  S
C688        C689   1.424   1_554  A
C689        C690   1.407       .  A
C689        C696   1.520       .  S
C690        C691   1.400   1_556  A
C690        H695   1.083       .  S
C691        C692   1.411       .  A
C692        C693   1.520       .  S
C693        F697   1.385       .  S
C693        F698   1.383       .  S
C693        F699   1.380       .  S
C696        F700   1.383       .  S
C696        F701   1.382       .  S
C696        F702   1.386       .  S
C703        C704   1.412   1_655  A
C703        C708   1.406       .  A
C703        H710   1.082       .  S
C704        C705   1.430       .  A
C705        C706   1.411       .  A
C705        C712   1.522       .  S
C706        C707   1.398       .  A
C706        H711   1.083       .  S
C707        C708   1.409   1_455  A
C708        C709   1.518       .  S
C709        F713   1.385       .  S
C709        F714   1.383       .  S
C709        F715   1.383       .  S
C712        F716   1.383       .  S
C712        F717   1.382       .  S
C712        F718   1.385       .  S
C719        C720   1.410   1_655  A
C719        C724   1.405       .  A
C719        H726   1.083       .  S
C720        C721   1.426       .  A
C721        C722   1.410       .  A
C721        C728   1.520       .  S
C722        C723   1.400       .  A
C722        H727   1.083       .  S
C723        C724   1.410   1_455  A
C724        C725   1.518       .  S
C725        F729   1.382       .  S
C725        F730   1.385       .  S
C725        F731   1.384       .  S
C728        F732   1.384       .  S
C728        F733   1.382       .  S
C728        F734   1.385       .  S
C735        C736   1.410       .  A
C735        C740   1.406       .  A
C735        H742   1.082       .  S
C736        C737   1.429   1_455  A
C737        C738   1.406       .  A
C737        C744   1.522       .  S
C738        C739   1.396   1_655  A
C738        H743   1.083       .  S
C739        C740   1.410       .  A
C740        C741   1.518       .  S
C741        F745   1.385       .  S
C741        F746   1.383       .  S
C741        F747   1.383       .  S
C744        F748   1.383       .  S
C744        F749   1.383       .  S
C744        F750   1.385       .  S
C751        C752   1.409   1_655  A
C751        C756   1.406       .  A
C751        H758   1.082       .  S
C752        C753   1.427       .  A
C753        C754   1.410       .  A
C753        C760   1.521       .  S
C754        C755   1.400       .  A
C754        H759   1.083       .  S
C755        C756   1.411   1_455  A
C756        C757   1.519       .  S
C757        F761   1.384       .  S
C757        F762   1.381       .  S
C757        F763   1.384       .  S
C760        F764   1.383       .  S
C760        F765   1.384       .  S
C760        F766   1.385       .  S
C767        C768   1.402       .  A
C767        C772   1.404       .  A
C767        H774   1.083       .  S
C768        C769   1.415   1_565  A
C769        C770   1.404       .  A
C769        C776   1.519       .  S
C770        C771   1.403   1_545  A
C770        H775   1.083       .  S
C771        C772   1.417       .  A
C772        C773   1.518       .  S
C773        F777   1.380       .  S
C773        F778   1.385       .  S
C773        F779   1.384       .  S
C776        F780   1.384       .  S
C776        F781   1.382       .  S
C776        F782   1.384       .  S
C783        C784   1.411   1_545  A
C783        C788   1.405       .  A
C783        H790   1.082       .  S
C784        C785   1.427       .  A
C785        C786   1.410       .  A
C785        C792   1.520       .  S
C786        C787   1.398   1_565  A
C786        H791   1.083       .  S
C787        C788   1.410       .  A
C788        C789   1.517       .  S
C789        F793   1.385       .  S
C789        F794   1.383       .  S
C789        F795   1.381       .  S
C792        F796   1.384       .  S
C792        F797   1.383       .  S
C792        F798   1.385       .  S
C799        C800   1.400       .  A
C799        C804   1.409       .  A
C799        H806   1.083       .  S
C800        C801   1.412   1_565  A
C801        C802   1.404       .  A
C801        C808   1.520       .  S
C802        C803   1.409   1_545  A
C802        H807   1.083       .  S
C803        C804   1.424       .  A
C804        C805   1.520       .  S
C805        F809   1.385       .  S
C805        F810   1.383       .  S
C805        F811   1.383       .  S
C808        F812   1.384       .  S
C808        F813   1.384       .  S
C808        F814   1.382       .  S
C815        C816   1.402   1_545  A
C815        C820   1.408       .  A
C815        H822   1.083       .  S
C816        C817   1.418       .  A
C817        C818   1.406       .  A
C817        C824   1.521       .  S
C818        C819   1.405       .  A
C818        H823   1.083       .  S
C819        C820   1.420   1_565  A
C820        C821   1.517       .  S
C821        F825   1.385       .  S
C821        F826   1.383       .  S
C821        F827   1.382       .  S
C824        F828   1.383       .  S
C824        F829   1.382       .  S
C824        F830   1.385       .  S
C831        C832   1.396   1_554  A
C831        C836   1.402       .  A
C831        H838   1.084       .  S
C832        C833   1.414       .  A
C833        C834   1.406       .  A
C833        C840   1.520       .  S
C834        C835   1.408       .  A
C834        H839   1.083       .  S
C835        C836   1.424   1_556  A
C836        C837   1.519       .  S
C837        F841   1.386       .  S
C837        F842   1.382   1_554  S
C837        F843   1.382       .  S
C840        F844   1.383       .  S
C840        F845   1.383       .  S
C840        F846   1.384       .  S
C847        C848   1.401   1_554  A
C847        C852   1.409       .  A
C847        H854   1.083       .  S
C848        C849   1.415       .  A
C849        C850   1.406       .  A
C849        C856   1.519       .  S
C850        C851   1.406   1_556  A
C850        H855   1.083       .  S
C851        C852   1.424       .  A
C852        C853   1.519       .  S
C853        F857   1.386       .  S
C853        F858   1.383       .  S
C853        F859   1.383       .  S
C856        F860   1.383       .  S
C856        F861   1.381       .  S
C856        F862   1.385       .  S
C863        C864   1.408       .  A
C863        C868   1.407       .  A
C863        H870   1.082   1_556  S
C864        C865   1.424       .  A
C865        C866   1.415       .  A
C865        C872   1.519       .  S
C866        C867   1.405       .  A
C866        H871   1.083       .  S
C867        C868   1.417       .  A
C868        C869   1.521   1_556  S
C869        F873   1.384       .  S
C869        F874   1.382       .  S
C869        F875   1.384       .  S
C872        F876   1.382       .  S
C872        F877   1.384       .  S
C872        F878   1.384       .  S
C879        C880   1.410   1_554  A
C879        C884   1.401       .  A
C879        H886   1.082       .  S
C880        C881   1.427       .  A
C881        C882   1.405       .  A
C881        C888   1.521       .  S
C882        C883   1.396   1_556  A
C882        H887   1.083       .  S
C883        C884   1.408       .  A
C884        C885   1.518       .  S
C885        F889   1.382       .  S
C885        F890   1.385       .  S
C885        F891   1.382       .  S
C888        F892   1.383       .  S
C888        F893   1.385       .  S
C888        F894   1.383       .  S
