geometry optimzed in LAMMPS
_audit_creation_date              2020-11-30 
_audit_creation_method            'lammps2cif' 
_symmetry_space_group_name_H-M    'P1' 
_symmetry_Int_Tables_number       1 
_symmetry_cell_setting            triclinic 
loop_ 
_symmetry_equiv_pos_as_xyz 
  x,y,z 
_cell_length_a                    38.42870092 
_cell_length_b                    38.799543803351966 
_cell_length_c                    58.57328726409646 
_cell_angle_alpha                 90.13011272895912 
_cell_angle_beta                  90.1245413373697 
_cell_angle_gamma                 89.69330623036129 
loop_ 
_atom_site_label 
_atom_site_type_symbol 
_atom_site_fract_x 
_atom_site_fract_y 
_atom_site_fract_z 
_atom_site_charge 
In1        In  0.65493693  0.40474754  0.31272563     1.36900
C2          C  0.66037609  0.33677577  0.30993264     0.77600
O3          O  0.71147640  0.40658921  0.32130441    -0.60800
O4          O  0.67505211  0.41944901  0.34729503    -0.51700
C5          C  0.66501966  0.45617163  0.28406296     0.70300
O6          O  0.66975422  0.42506809  0.27827545    -0.46600
C7          C  0.58600681  0.40885171  0.31556835     0.75000
O8          O  0.66500093  0.35581016  0.29270587    -0.58400
O9          O  0.60546911  0.41730441  0.33206789    -0.48500
O10         O  0.65370982  0.35282924  0.32815124    -0.54900
C11         C  0.70665088  0.41524302  0.34185371     0.85200
O12         O  0.65621675  0.46048186  0.30459291    -0.56700
O13         O  0.60210118  0.39871955  0.29806386    -0.60000
In14       In  0.36659530  0.40430351  0.31422932     1.36900
C15         C  0.36217986  0.33568466  0.31282226     0.77600
O16         O  0.41837034  0.39767153  0.29851196    -0.60800
O17         O  0.41667629  0.41774120  0.33228745    -0.51700
C18         C  0.35608196  0.45635184  0.28550303     0.70300
O19         O  0.35048636  0.42527947  0.27997988    -0.46600
C20         C  0.31641375  0.41481849  0.34418593     0.75000
O21         O  0.35249197  0.35438643  0.29625850    -0.58400
O22         O  0.34825791  0.41740905  0.34934105    -0.48500
O23         O  0.37365460  0.35236250  0.32969943    -0.54900
C24         C  0.43528972  0.40844147  0.31554145     0.85200
O25         O  0.36621475  0.46044103  0.30582873    -0.56700
O26         O  0.31051581  0.40811898  0.32344707    -0.60000
In27       In  0.36324045  0.11698142  0.31663856     1.36900
C28         C  0.43215143  0.11102512  0.31734417     0.77600
O29         O  0.35741901  0.06106518  0.30773647    -0.60800
O30         O  0.34967338  0.09790885  0.28143389    -0.51700
C31         C  0.31292533  0.10691743  0.34675994     0.70300
O32         O  0.34472024  0.10229505  0.35162673    -0.46600
C33         C  0.36012418  0.18578585  0.31518389     0.75000
O34         O  0.41379322  0.10268753  0.33436503    -0.58400
O35         O  0.34860087  0.16711212  0.29913347    -0.48500
O36         O  0.41489094  0.12123813  0.30033040    -0.54900
C37         C  0.35099241  0.06638730  0.28690187     0.85200
O38         O  0.30728458  0.11615693  0.32643409    -0.56700
O39         O  0.37241074  0.16900031  0.33177137    -0.60000
In40       In  0.65178820  0.11982063  0.31438617     1.36900
C41         C  0.58294276  0.11327519  0.31701453     0.77600
O42         O  0.64926127  0.17221946  0.32969297    -0.60800
O43         O  0.66275480  0.16850477  0.29464419    -0.51700
C44         C  0.70224090  0.10972258  0.34459370     0.70300
O45         O  0.67039177  0.10872293  0.34991923    -0.46600
C46         C  0.66520029  0.07010531  0.28449180     0.75000
O47         O  0.60296417  0.10133961  0.33223435    -0.58400
O48         O  0.66733107  0.10164051  0.27935643    -0.48500
O49         O  0.59842701  0.12811348  0.30089708    -0.54900
C50         C  0.65739008  0.18789374  0.31166549     0.85200
O51         O  0.70792617  0.11540155  0.32372841    -0.56700
O52         O  0.65690358  0.06443777  0.30494880    -0.60000
In53       In  0.86673590  0.40208309  0.43963384     1.36900
C54         C  0.93581090  0.40450339  0.43759396     0.77600
O55         O  0.86634465  0.45797559  0.44852380    -0.60800
O56         O  0.85057177  0.42247261  0.47397041    -0.51700
C57         C  0.81729105  0.41363488  0.40882251     0.70300
O58         O  0.84923371  0.41275105  0.40367208    -0.46600
C59         C  0.85817642  0.33451525  0.44320076     0.75000
O60         O  0.91668763  0.41673202  0.42198406    -0.58400
O61         O  0.85404358  0.35449019  0.46007454    -0.48500
O62         O  0.91935016  0.39121243  0.45389340    -0.54900
C63         C  0.85603367  0.45356954  0.46872378     0.85200
O64         O  0.81112169  0.40939999  0.42977815    -0.56700
O65         O  0.86606209  0.34937465  0.42482812    -0.60000
In66       In  0.15547308  0.40377872  0.44034835     1.36900
C67         C  0.08650829  0.40677112  0.43889047     0.77600
O68         O  0.14840741  0.35167950  0.42570159    -0.60800
O69         O  0.17105976  0.35478641  0.45870956    -0.51700
C70         C  0.20480515  0.41344463  0.40973699     0.70300
O71         O  0.17304402  0.41901081  0.40532507    -0.46600
C72         C  0.16718894  0.45524109  0.46933847     0.75000
O73         O  0.10499107  0.41502131  0.42193084    -0.58400
O74         O  0.17023441  0.42394107  0.47504717    -0.48500
O75         O  0.10362355  0.39824650  0.45637841    -0.54900
C76         C  0.16067948  0.33562076  0.44258392     0.85200
O77         O  0.21094836  0.40382463  0.42991934    -0.56700
O78         O  0.15919064  0.45982258  0.44866513    -0.60000
In79       In  0.15308656  0.11817734  0.44392728     1.36900
C80         C  0.15873857  0.18642038  0.44539725     0.77600
O81         O  0.20906430  0.11347305  0.43447502    -0.60800
O82         O  0.17127466  0.10288217  0.40891715    -0.51700
C83         C  0.16338843  0.06795742  0.47377319     0.70300
O84         O  0.16883269  0.09925567  0.47865303    -0.46600
C85         C  0.08425369  0.11414421  0.44216653     0.75000
O86         O  0.16737915  0.16769688  0.46214526    -0.58400
O87         O  0.10320547  0.10656203  0.42523911    -0.48500
O88         O  0.14756732  0.16995406  0.42836054    -0.54900
C89         C  0.20316622  0.10558856  0.41393264     0.85200
O90         O  0.15379280  0.06264398  0.45344751    -0.56700
O91         O  0.10079481  0.12346479  0.45970781    -0.60000
In92       In  0.86497664  0.11811179  0.44033397     1.36900
C93         C  0.85787992  0.18599408  0.44325049     0.77600
O94         O  0.91679108  0.12524914  0.45648922    -0.60800
O95         O  0.91539672  0.10509273  0.42274021    -0.51700
C96         C  0.85301387  0.06611973  0.46845241     0.70300
O97         O  0.84646807  0.09709562  0.47381087    -0.46600
C98         C  0.81532282  0.10769120  0.40965561     0.75000
O99         O  0.85246819  0.16662407  0.46020423    -0.58400
O100        O  0.84727546  0.10647405  0.40454445    -0.48500
O101        O  0.86690983  0.17043913  0.42529805    -0.54900
C102        C  0.93383058  0.11438745  0.43954984     0.85200
O103        O  0.86517455  0.06210304  0.44862442    -0.56700
O104        O  0.80928143  0.11319681  0.43051831    -0.60000
In105      In  0.36505892  0.90354909  0.19178731     1.36900
C106        C  0.36008188  0.83499925  0.19327153     0.77600
O107        O  0.30875667  0.90809186  0.18245259    -0.60800
O108        O  0.34623960  0.91637446  0.15646485    -0.51700
C109        C  0.35303264  0.95480212  0.22106062     0.70300
O110        O  0.34931544  0.92345826  0.22649872    -0.46600
C111        C  0.43419495  0.90944455  0.19008492     0.75000
O112        O  0.35147931  0.85377407  0.21005175    -0.58400
O113        O  0.41492067  0.91658853  0.17319777    -0.48500
O114        O  0.37089133  0.85153601  0.17625137    -0.54900
C115        C  0.31438902  0.91447618  0.16167483     0.85200
O116        O  0.36200423  0.95944626  0.20058218    -0.56700
O117        O  0.41784714  0.89976662  0.20756420    -0.60000
In118      In  0.65458462  0.62013730  0.19145021     1.36900
C119        C  0.66077451  0.68818607  0.19382980     0.77600
O120        O  0.71089684  0.61511272  0.18245404    -0.60800
O121        O  0.67299650  0.60624852  0.15658650    -0.51700
C122        C  0.66472014  0.56876627  0.22014290     0.70300
O123        O  0.66910026  0.59989358  0.22591308    -0.46600
C124        C  0.58567186  0.61645001  0.18931556     0.75000
O125        O  0.66865676  0.66889313  0.21045681    -0.58400
O126        O  0.60479145  0.60713341  0.17284925    -0.48500
O127        O  0.65030359  0.67234290  0.17632225    -0.54900
C128        C  0.70489048  0.60787188  0.16180608     0.85200
O129        O  0.65593593  0.56426569  0.19960771    -0.56700
O130        O  0.60213483  0.62706249  0.20655921    -0.60000
In131      In  0.36587135  0.61702180  0.18962299     1.36900
C132        C  0.43489730  0.61270086  0.18789749     0.77600
O133        O  0.37319453  0.66889909  0.17447594    -0.60800
O134        O  0.35005211  0.66663972  0.20725841    -0.51700
C135        C  0.31519581  0.60645691  0.15961676     0.70300
O136        O  0.34699981  0.60304756  0.15451272    -0.46600
C137        C  0.35504907  0.56742383  0.21987498     0.75000
O138        O  0.41597810  0.60257994  0.17151718    -0.58400
O139        O  0.35318702  0.59904307  0.22505162    -0.48500
O140        O  0.41819140  0.62379807  0.20490863    -0.54900
C141        C  0.36064818  0.68542597  0.19109400     0.85200
O142        O  0.30965323  0.61411040  0.18024730    -0.56700
O143        O  0.36168664  0.56148863  0.19913880    -0.60000
In144      In  0.65440654  0.90553340  0.19220679     1.36900
C145        C  0.66013485  0.83739038  0.19399984     0.77600
O146        O  0.60217018  0.90039407  0.20816963    -0.60800
O147        O  0.60397292  0.91898860  0.17418610    -0.51700
C148        C  0.66660774  0.95643893  0.22116504     0.70300
O149        O  0.67006703  0.92510640  0.22670842    -0.46600
C150        C  0.70452050  0.91558430  0.16183705     0.75000
O151        O  0.66876818  0.85619245  0.21074237    -0.58400
O152        O  0.67255769  0.91801544  0.15682687    -0.48500
O153        O  0.64888054  0.85377813  0.17697141    -0.54900
C154        C  0.58524318  0.91072778  0.19102676     0.85200
O155        O  0.65769259  0.96133901  0.20066696    -0.56700
O156        O  0.71054830  0.90910439  0.18257699    -0.60000
In157      In  0.86284286  0.61650723  0.06330742     1.36900
C158        C  0.85973219  0.68495513  0.05996709     0.77600
O159        O  0.80705846  0.61440983  0.07342599    -0.60800
O160        O  0.84508375  0.60289616  0.09865689    -0.51700
C161        C  0.85219428  0.56536764  0.03396533     0.70300
O162        O  0.84804338  0.59666621  0.02855118    -0.46600
C163        C  0.93158911  0.61003991  0.06545570     0.75000
O164        O  0.84787805  0.66560761  0.04440708    -0.58400
O165        O  0.91238317  0.60357585  0.08240480    -0.48500
O166        O  0.87186797  0.66899708  0.07692159    -0.54900
C167        C  0.81318065  0.60642465  0.09390930     0.85200
O168        O  0.86057413  0.56053495  0.05454315    -0.56700
O169        O  0.91532835  0.61959524  0.04784250    -0.60000
In170      In  0.14986168  0.90375354  0.06695580     1.36900
C171        C  0.15433155  0.83531115  0.06427845     0.77600
O172        O  0.20592071  0.90582245  0.07655694    -0.60800
O173        O  0.16877380  0.91932699  0.10191413    -0.51700
C174        C  0.16097481  0.95509496  0.03794761     0.70300
O175        O  0.16793045  0.92401318  0.03312724    -0.46600
C176        C  0.08094856  0.90801785  0.06760493     0.75000
O177        O  0.16067538  0.85456335  0.04740664    -0.58400
O178        O  0.09920939  0.91508811  0.08499000    -0.48500
O179        O  0.14644358  0.85132506  0.08231474    -0.54900
C180        C  0.20053470  0.91497052  0.09694660     0.85200
O181        O  0.14938010  0.95975965  0.05786989    -0.56700
O182        O  0.09820926  0.89880743  0.05035156    -0.60000
In183      In  0.15063749  0.61722469  0.06466839     1.36900
C184        C  0.08205153  0.60937627  0.06670964     0.77600
O185        O  0.14250129  0.66914069  0.08009696    -0.60800
O186        O  0.16341878  0.66725079  0.04663834    -0.51700
C187        C  0.20162765  0.60778712  0.09468944     0.70300
O188        O  0.16994824  0.60345968  0.09968199    -0.46600
C189        C  0.16375762  0.56689104  0.03487661     0.75000
O190        O  0.10162337  0.60202097  0.08340260    -0.58400
O191        O  0.16376589  0.59838113  0.02929304    -0.48500
O192        O  0.09786020  0.62015329  0.04932774    -0.54900
C193        C  0.15376598  0.68582986  0.06326637     0.85200
O194        O  0.20696571  0.61614815  0.07417372    -0.56700
O195        O  0.15791071  0.56158977  0.05575738    -0.60000
In196      In  0.86180578  0.90296012  0.06188555     1.36900
C197        C  0.85942313  0.83448123  0.05865977     0.77600
O198        O  0.91428116  0.89983065  0.04591233    -0.60800
O199        O  0.91122687  0.91755057  0.08016295    -0.51700
C200        C  0.84923925  0.95367157  0.03261838     0.70300
O201        O  0.84724389  0.92225938  0.02696920    -0.46600
C202        C  0.81267401  0.91250926  0.09327522     0.75000
O203        O  0.84598120  0.85376317  0.04361645    -0.58400
O204        O  0.84469200  0.91578355  0.09770697    -0.48500
O205        O  0.87336300  0.85049953  0.07499414    -0.54900
C206        C  0.93048615  0.91009622  0.06336058     0.85200
O207        O  0.85643008  0.95876472  0.05336438    -0.56700
O208        O  0.80617764  0.90472394  0.07278989    -0.60000
C209        C  0.15559823  0.79708514  0.06339872    -0.05400
C210        C  0.15548665  0.77859046  0.08397297    -0.32800
C211        C  0.15522622  0.74255293  0.08407649     0.36400
C212        C  0.15526683  0.72402923  0.06332670    -0.05800
C213        C  0.15587823  0.74241322  0.04268998    -0.32700
C214        C  0.15594946  0.77864126  0.04260691     0.36300
H215        H  0.15553391  0.79211435  0.10017966     0.16700
O216        O  0.15593527  0.72570664  0.10464640    -0.60200
H217        H  0.15559454  0.72869151  0.02656258     0.16700
O218        O  0.15492011  0.79565273  0.02212302    -0.60300
H219        H  0.17957536  0.79814353  0.01753561     0.43700
H220        H  0.13144958  0.72545114  0.10990051     0.43700
C221        C  0.04247362  0.91024320  0.06693796    -0.05400
C222        C  0.02542483  0.90597788  0.04589080    -0.32800
C223        C  0.98914916  0.90690539  0.04437764     0.36400
C224        C  0.96895875  0.91194620  0.06419948    -0.05800
C225        C  0.98596691  0.91703131  0.08519646    -0.32700
C226        C  0.02239688  0.91636342  0.08665867     0.36300
H227        H  0.04025525  0.90184130  0.03040187     0.16700
O228        O  0.97381606  0.90340600  0.02332627    -0.60200
H229        H  0.97099320  0.92091925  0.10064604     0.16700
O230        O  0.03793698  0.92067311  0.10755391    -0.60300
H231        H  0.04142756  0.94586799  0.10910341     0.43700
H232        H  0.97316046  0.87824183  0.02039826     0.43700
C233        C  0.04365238  0.60645939  0.06702328    -0.05400
C234        C  0.02561379  0.60864072  0.04622402    -0.32800
C235        C  0.98934357  0.60878673  0.04553592     0.36400
C236        C  0.97004408  0.60719560  0.06595458    -0.05800
C237        C  0.98796765  0.60388744  0.08680219    -0.32700
C238        C  0.02452932  0.60331713  0.08743372     0.36300
H239        H  0.03970051  0.61060999  0.03027761     0.16700
O240        O  0.97311895  0.61109122  0.02470689    -0.60200
H241        H  0.97366407  0.60249142  0.10268810     0.16700
O242        O  0.04116243  0.60133190  0.10812690    -0.60300
H243        H  0.04332316  0.57634078  0.11134111     0.43700
H244        H  0.96821473  0.58693801  0.02018821     0.43700
C245        C  0.86004726  0.72318129  0.05877900    -0.05400
C246        C  0.84118678  0.74097402  0.04184737    -0.32800
C247        C  0.84079605  0.77725425  0.04126630     0.36400
C248        C  0.85946165  0.79623944  0.05778815    -0.05800
C249        C  0.87879124  0.77827980  0.07430902    -0.32700
C250        C  0.87948448  0.74236694  0.07479096     0.36300
H251        H  0.82641577  0.72678786  0.02920173     0.16700
O252        O  0.82214941  0.79374671  0.02451865    -0.60200
H253        H  0.89376559  0.79213268  0.08702143     0.16700
O254        O  0.89942500  0.72637106  0.09112347    -0.60300
H255        H  0.92233078  0.72221189  0.08375366     0.43700
H256        H  0.79840769  0.79655279  0.03082864     0.43700
C257        C  0.73251795  0.91848222  0.14457546    -0.05400
C258        C  0.72373036  0.91833258  0.12131107    -0.32800
C259        C  0.74950397  0.91743422  0.10448676     0.36400
C260        C  0.78499864  0.91659249  0.11071195    -0.05800
C261        C  0.79386496  0.91839171  0.13396292    -0.32700
C262        C  0.76801804  0.91918504  0.15083188     0.36300
H263        H  0.69668261  0.91796128  0.11606388     0.16700
O264        O  0.73953038  0.91657244  0.08200125    -0.60200
H265        H  0.82093987  0.91825738  0.13916175     0.16700
O266        O  0.77782332  0.92068516  0.17334533    -0.60300
H267        H  0.78273075  0.89648827  0.17776428     0.43700
H268        H  0.73950244  0.94097556  0.07699879     0.43700
C269        C  0.23037008  0.60422030  0.11145068    -0.05400
C270        C  0.26496596  0.60387700  0.10371819    -0.32800
C271        C  0.29285901  0.60298960  0.11913235     0.36400
C272        C  0.28650306  0.60315676  0.14282254    -0.05800
C273        C  0.25190892  0.60252586  0.15055009    -0.32700
C274        C  0.22401057  0.60275344  0.13512544     0.36300
H275        H  0.27051386  0.60478207  0.08560252     0.16700
O276        O  0.32616325  0.60370408  0.11079605    -0.60200
H277        H  0.24636255  0.60251911  0.16867921     0.16700
O278        O  0.19070220  0.60330348  0.14348098    -0.60300
H279        H  0.18439120  0.57875330  0.14546773     0.43700
H280        H  0.33276082  0.57917977  0.10857205     0.43700
C281        C  0.73275937  0.60333347  0.14473105    -0.05400
C282        C  0.72409698  0.60526679  0.12150982    -0.32800
C283        C  0.74988854  0.60503818  0.10477575     0.36400
C284        C  0.78526973  0.60278196  0.11108394    -0.05800
C285        C  0.79389611  0.59892387  0.13426870    -0.32700
C286        C  0.76798498  0.59935334  0.15106959     0.36300
H287        H  0.69719645  0.60817811  0.11624426     0.16700
O288        O  0.74011831  0.60831443  0.08235270    -0.60200
H289        H  0.82087124  0.59663212  0.13949336     0.16700
O290        O  0.77740106  0.59578508  0.17355288    -0.60300
H291        H  0.78481097  0.61906673  0.17851508     0.43700
H292        H  0.73609273  0.58443085  0.07693757     0.43700
C293        C  0.54712410  0.61532447  0.18867241    -0.05400
C294        C  0.52965170  0.60124157  0.16972713    -0.32800
C295        C  0.49311834  0.59999879  0.16904530     0.36400
C296        C  0.47348843  0.61268457  0.18760800    -0.05800
C297        C  0.49109501  0.62685298  0.20640812    -0.32700
C298        C  0.52731666  0.62865339  0.20694795     0.36300
H299        H  0.54430363  0.59125742  0.15535945     0.16700
O300        O  0.47700987  0.58698425  0.15000312    -0.60200
H301        H  0.47671705  0.63719273  0.22079014     0.16700
O302        O  0.54296116  0.64369988  0.22550625    -0.60300
H303        H  0.54429682  0.66861773  0.22173802     0.43700
H304        H  0.47535546  0.56187179  0.15271200     0.43700
C305        C  0.66238139  0.79925016  0.19400341    -0.05400
C306        C  0.67035035  0.78117118  0.21413850    -0.32800
C307        C  0.67078982  0.74495460  0.21440190     0.36400
C308        C  0.66289859  0.72630038  0.19435678    -0.05800
C309        C  0.65588326  0.74449580  0.17418468    -0.32700
C310        C  0.65558023  0.78042258  0.17385506     0.36300
H311        H  0.67575399  0.79509061  0.22979165     0.16700
O312        O  0.67794410  0.72820362  0.23446724    -0.60200
H313        H  0.65024047  0.73083853  0.15846129     0.16700
O314        O  0.64894850  0.79679339  0.15355106    -0.60300
H315        H  0.62324918  0.79769857  0.15226323     0.43700
H316        H  0.70352732  0.72463043  0.23447128     0.43700
C317        C  0.28575704  0.91821870  0.14484881    -0.05400
C318        C  0.25138040  0.92260680  0.15254423    -0.32800
C319        C  0.22339880  0.92326936  0.13714925     0.36400
C320        C  0.22943567  0.91883328  0.11358067    -0.05800
C321        C  0.26392026  0.91571077  0.10586059    -0.32700
C322        C  0.29188183  0.91534762  0.12120925     0.36300
H323        H  0.24605638  0.92502055  0.17063694     0.16700
O324        O  0.19024931  0.92676061  0.14548831    -0.60200
H325        H  0.26930359  0.91255317  0.08782559     0.16700
O326        O  0.32496354  0.91105434  0.11289266    -0.60300
H327        H  0.32823218  0.88575661  0.11142061     0.43700
H328        H  0.18573756  0.95195514  0.14580947     0.43700
C329        C  0.35852689  0.79674972  0.19306853    -0.05400
C330        C  0.37202902  0.77906725  0.17407980    -0.32800
C331        C  0.37262655  0.74310615  0.17321063     0.36400
C332        C  0.35915822  0.72367798  0.19148608    -0.05800
C333        C  0.34490315  0.74125675  0.21032907    -0.32700
C334        C  0.34457616  0.77747519  0.21124272     0.36300
H335        H  0.38275702  0.79316135  0.15980547     0.16700
O336        O  0.38645989  0.72733573  0.15427780    -0.60200
H337        H  0.33420055  0.72692227  0.22449960     0.16700
O338        O  0.33012533  0.79363654  0.22980424    -0.60300
H339        H  0.34912846  0.79499671  0.24123660     0.43700
H340        H  0.41183819  0.72598467  0.15723561     0.43700
C341        C  0.47279609  0.91164818  0.18983208    -0.05400
C342        C  0.49105307  0.90714997  0.21041323    -0.32800
C343        C  0.52740332  0.90746790  0.21104499     0.36400
C344        C  0.54661184  0.91229791  0.19080216    -0.05800
C345        C  0.52845226  0.91750709  0.17021961    -0.32700
C346        C  0.49188368  0.91700043  0.16959134     0.36300
H347        H  0.47709398  0.90306793  0.22622165     0.16700
O348        O  0.54378901  0.90244963  0.23161015    -0.60200
H349        H  0.54261634  0.92122964  0.15445284     0.16700
O350        O  0.47521616  0.92130530  0.14906626    -0.60300
H351        H  0.47364822  0.89782373  0.14239572     0.43700
H352        H  0.54803609  0.92590761  0.23772290     0.43700
C353        C  0.84545047  0.98223220  0.01608177    -0.05400
C354        C  0.84934499  0.97547446  0.99268461    -0.32800
C355        C  0.85077235  0.00243527  0.47688054     0.36400
C356        C  0.84795046  0.03695736  0.48434749    -0.05800
C357        C  0.84208872  0.04359337  0.00760057    -0.32700
C358        C  0.84093359  0.01663676  0.02341578     0.36300
H359        H  0.85279092  0.94925311  0.98666624     0.16700
O360        O  0.85617844  0.99468796  0.45430338    -0.60200
H361        H  0.83959757  0.06986728  0.01371048     0.16700
O362        O  0.83651236  0.02440493  0.04608264    -0.60300
H363        H  0.81127536  0.02153636  0.04895011     0.43700
H364        H  0.83261831  0.99156219  0.44773492     0.43700
C365        C  0.16660174  0.03957402  0.49049596    -0.05400
C366        C  0.16804783  0.00538960  0.48260051    -0.32800
C367        C  0.16726426  0.97768531  0.99784546     0.36400
C368        C  0.16497436  0.98381386  0.02152644    -0.05800
C369        C  0.16440627  0.01804203  0.02946381    -0.32700
C370        C  0.16552074  0.04578265  0.01420013     0.36300
H371        H  0.16893957  0.00002616  0.46444737     0.16700
O372        O  0.16746855  0.94475405  0.98929027    -0.60200
H373        H  0.16254971  0.02337751  0.04758633     0.16700
O374        O  0.16348688  0.07874485  0.02261724    -0.60300
H375        H  0.18790190  0.08549515  0.02570298     0.43700
H376        H  0.14255549  0.93896600  0.48684100     0.43700
C377        C  0.97227906  0.11296626  0.43978696    -0.05400
C378        C  0.98978955  0.11657546  0.46070148    -0.32800
C379        C  0.02608407  0.11630713  0.46174332     0.36400
C380        C  0.04578745  0.11276403  0.44156635    -0.05800
C381        C  0.02831679  0.10870586  0.42064289    -0.32700
C382        C  0.99186368  0.10891823  0.41963254     0.36300
H383        H  0.97528710  0.11957717  0.47643387     0.16700
O384        O  0.04191158  0.11981780  0.48262983    -0.60200
H385        H  0.04292444  0.10598166  0.40493863     0.16700
O386        O  0.97576169  0.10567340  0.39883088    -0.60300
H387        H  0.97280092  0.12960610  0.39316975     0.43700
H388        H  0.04588795  0.09592597  0.48808751     0.43700
C389        C  0.17085863  0.48416205  0.48577207    -0.05400
C390        C  0.17338756  0.47716141  0.00922131    -0.32800
C391        C  0.17243868  0.50385025  0.02535780     0.36400
C392        C  0.16883737  0.53842835  0.01820732    -0.05800
C393        C  0.16825411  0.54555193  0.99472017    -0.32700
C394        C  0.16920050  0.51884080  0.47857355     0.36300
H395        H  0.17494195  0.45077459  0.51518115     0.16700
O396        O  0.17396556  0.49562262  0.04809554    -0.60200
H397        H  0.16600385  0.57189747  0.98878581     0.16700
O398        O  0.16827896  0.52701990  0.45580593    -0.60300
H399        H  0.14334524  0.53084076  0.45220477     0.43700
H400        H  0.19906500  0.49617535  0.05206763     0.43700
C401        C  0.16096425  0.22454283  0.44518881    -0.05400
C402        C  0.15149616  0.24198177  0.42513584    -0.32800
C403        C  0.15184971  0.27786791  0.42403790     0.36400
C404        C  0.16193523  0.29744377  0.44325277    -0.05800
C405        C  0.17208847  0.28010472  0.46326535    -0.32700
C406        C  0.17177096  0.24392452  0.46431363     0.36300
H407        H  0.14344531  0.22776469  0.41009952     0.16700
O408        O  0.14255750  0.29342748  0.40389639    -0.60200
H409        H  0.17990340  0.29459571  0.47823460     0.16700
O410        O  0.18129617  0.22794866  0.48424068    -0.60300
H411        H  0.20685294  0.22470833  0.48311912     0.43700
H412        H  0.11680588  0.29494424  0.40426304     0.43700
C413        C  0.85171216  0.48244321  0.48506780    -0.05400
C414        C  0.84752913  0.47543097  0.50839769    -0.32800
C415        C  0.84665856  0.50217351  0.02449158     0.36400
C416        C  0.84929844  0.53675527  0.01732334    -0.05800
C417        C  0.85187152  0.54382378  0.99390955    -0.32700
C418        C  0.85328965  0.51709179  0.47785567     0.36300
H419        H  0.84599812  0.44905027  0.51432278     0.16700
O420        O  0.84313017  0.49416970  0.04716491    -0.60200
H421        H  0.85407489  0.57017762  0.98802892     0.16700
O422        O  0.85725508  0.52521921  0.45523808    -0.60300
H423        H  0.83326470  0.52706982  0.44908983     0.43700
H424        H  0.86695511  0.48832908  0.05249501     0.43700
C425        C  0.97433454  0.40546718  0.43730965    -0.05400
C426        C  0.99264405  0.39262197  0.45625165    -0.32800
C427        C  0.02894082  0.39305641  0.45696510     0.36400
C428        C  0.04795909  0.40646702  0.43844765    -0.05800
C429        C  0.02973948  0.41903132  0.41934302    -0.32700
C430        C  0.99322468  0.41872793  0.41870759     0.36300
H431        H  0.97879528  0.38205807  0.47070854     0.16700
O432        O  0.04548265  0.37933531  0.47565966    -0.60200
H433        H  0.04379832  0.42917559  0.40484727     0.16700
O434        O  0.97640303  0.43080031  0.39964419    -0.60300
H435        H  0.97387418  0.45594383  0.40213546     0.43700
H436        H  0.04615109  0.39824057  0.48705804     0.43700
C437        C  0.85450156  0.22391301  0.44401098    -0.05400
C438        C  0.85976451  0.24198183  0.46453028    -0.32800
C439        C  0.86017882  0.27817601  0.46479136     0.36400
C440        C  0.85475101  0.29666469  0.44437655    -0.05800
C441        C  0.84814653  0.27847779  0.42412516    -0.32700
C442        C  0.84786284  0.24254294  0.42382918     0.36300
H443        H  0.86496371  0.22805799  0.48019407     0.16700
O444        O  0.86730810  0.29506698  0.48483990    -0.60200
H445        H  0.84361642  0.29219764  0.40828889     0.16700
O446        O  0.84155943  0.22589680  0.40355967    -0.60300
H447        H  0.81621503  0.22121818  0.40352215     0.43700
H448        H  0.89300549  0.29775216  0.48509464     0.43700
C449        C  0.73085811  0.10557506  0.36134079    -0.05400
C450        C  0.76546313  0.10454972  0.35361935    -0.32800
C451        C  0.79330907  0.10356621  0.36905795     0.36400
C452        C  0.78685184  0.10432126  0.39273574    -0.05800
C453        C  0.75223626  0.10395799  0.40041990    -0.32700
C454        C  0.72441235  0.10421090  0.38499513     0.36300
H455        H  0.77107192  0.10511608  0.33550462     0.16700
O456        O  0.82663679  0.10336424  0.36074039    -0.60200
H457        H  0.74658362  0.10412791  0.41853356     0.16700
O458        O  0.69110040  0.10457091  0.39334166    -0.60300
H459        H  0.68458468  0.07994821  0.39472584     0.43700
H460        H  0.83300273  0.07863769  0.35930124     0.43700
C461        C  0.67056188  0.04171338  0.26797592    -0.05400
C462        C  0.67355046  0.00779304  0.27611719    -0.32800
C463        C  0.67389873  0.97975693  0.26107459     0.36400
C464        C  0.67116643  0.98534940  0.23737805    -0.05800
C465        C  0.67020939  0.01936351  0.22917546    -0.32700
C466        C  0.66995855  0.04741963  0.24423388     0.36300
H467        H  0.67455792  0.00283598  0.29430506     0.16700
O468        O  0.67587125  0.94704189  0.26982544    -0.60200
H469        H  0.66856565  0.02430109  0.21100474     0.16700
O470        O  0.66791615  0.08015903  0.23552608    -0.60300
H471        H  0.64274790  0.08455456  0.23310746     0.43700
H472        H  0.65151242  0.94062533  0.27330300     0.43700
C473        C  0.28459860  0.10293576  0.36365818    -0.05400
C474        C  0.29281968  0.10009331  0.38694161    -0.32800
C475        C  0.26659049  0.09997397  0.40350406     0.36400
C476        C  0.23129894  0.10173187  0.39688191    -0.05800
C477        C  0.22303555  0.10270649  0.37354691    -0.32700
C478        C  0.24926271  0.10382564  0.35702098     0.36300
H479        H  0.31974363  0.09926337  0.39244837     0.16700
O480        O  0.27582895  0.09839612  0.42611354    -0.60200
H481        H  0.19612054  0.10409904  0.36805888     0.16700
O482        O  0.23995695  0.10605048  0.33444903    -0.60300
H483        H  0.23564248  0.13094820  0.33167988     0.43700
H484        H  0.28137627  0.12247957  0.43051261     0.43700
C485        C  0.34858523  0.98377140  0.23748772    -0.05400
C486        C  0.34215877  0.97690440  0.26064048    -0.32800
C487        C  0.34171310  0.00358518  0.27687150     0.36400
C488        C  0.34721985  0.03800348  0.27004319    -0.05800
C489        C  0.35183773  0.04501757  0.24676412    -0.32700
C490        C  0.35267650  0.01838646  0.23059439     0.36300
H491        H  0.33853488  0.95063124  0.26635160     0.16700
O492        O  0.33583531  0.99566915  0.29934290    -0.60200
H493        H  0.35618079  0.07120665  0.24110199     0.16700
O494        O  0.35898553  0.02653819  0.20821977    -0.60300
H495        H  0.33571521  0.03060374  0.20137886     0.43700
H496        H  0.35875843  0.98824824  0.30544821     0.43700
C497        C  0.47075162  0.10998544  0.31717622    -0.05400
C498        C  0.48945221  0.09598893  0.33566251    -0.32800
C499        C  0.52605052  0.09605473  0.33584710     0.36400
C500        C  0.54446217  0.11081890  0.31751462    -0.05800
C501        C  0.52564684  0.12429989  0.29900217    -0.32700
C502        C  0.48939222  0.12397774  0.29867558     0.36300
H503        H  0.47571258  0.08504944  0.35003400     0.16700
O504        O  0.54337928  0.08227346  0.35419295    -0.60200
H505        H  0.53906836  0.13552732  0.28459252     0.16700
O506        O  0.47255432  0.13761326  0.28006935    -0.60300
H507        H  0.46986988  0.16253571  0.28350505     0.43700
H508        H  0.54678593  0.05757972  0.35033518     0.43700
C509        C  0.28811915  0.41793356  0.36109324    -0.05400
C510        C  0.25338953  0.41926312  0.35356403    -0.32800
C511        C  0.22587094  0.41874331  0.36916243     0.36400
C512        C  0.23288281  0.41697117  0.39275551    -0.05800
C513        C  0.26760133  0.41655043  0.40026671    -0.32700
C514        C  0.29507038  0.41719823  0.38470998     0.36300
H515        H  0.24745768  0.41988103  0.33547579     0.16700
O516        O  0.19234048  0.41897007  0.36108596    -0.60200
H517        H  0.27358756  0.41513724  0.41832715     0.16700
O518        O  0.32853045  0.41529754  0.39281861    -0.60300
H519        H  0.33545035  0.43950963  0.39561415     0.43700
H520        H  0.18653001  0.39438095  0.35844881     0.43700
C521        C  0.35224943  0.48550479  0.26928308    -0.05400
C522        C  0.34473234  0.47875976  0.24623112    -0.32800
C523        C  0.34409765  0.50537898  0.23012177     0.36400
C524        C  0.35129081  0.53952169  0.23686969    -0.05800
C525        C  0.35712880  0.54657596  0.26005724    -0.32700
C526        C  0.35762522  0.52000119  0.27620708     0.36300
H527        H  0.34007581  0.45261072  0.24051753     0.16700
O528        O  0.33700082  0.49755689  0.20775274    -0.60200
H529        H  0.36252675  0.57266119  0.26562802     0.16700
O530        O  0.36459478  0.52803673  0.29856092    -0.60300
H531        H  0.34165959  0.53369884  0.30537851     0.43700
H532        H  0.31158575  0.50145275  0.20597936     0.43700
C533        C  0.36077290  0.29735507  0.31294772    -0.05400
C534        C  0.37288016  0.27961177  0.33231440    -0.32800
C535        C  0.37249772  0.24359486  0.33331530     0.36400
C536        C  0.35984987  0.22416234  0.31467041    -0.05800
C537        C  0.34754778  0.24184140  0.29529994    -0.32700
C538        C  0.34809707  0.27805385  0.29429044     0.36300
H539        H  0.38291846  0.29370119  0.34687872     0.16700
O540        O  0.38518574  0.22776291  0.35255210    -0.60200
H541        H  0.33774157  0.22756566  0.28075578     0.16700
O542        O  0.33597114  0.29420029  0.27503786    -0.60300
H543        H  0.35623333  0.29518239  0.26459583     0.43700
H544        H  0.36513524  0.22655045  0.36314375     0.43700
C545        C  0.73552995  0.41866530  0.35849622    -0.05400
C546        C  0.72783340  0.42306526  0.38173354    -0.32800
C547        C  0.75421838  0.42240668  0.39823531     0.36400
C548        C  0.78924147  0.41787296  0.39163387    -0.05800
C549        C  0.79713432  0.41528224  0.36829450    -0.32700
C550        C  0.77066565  0.41537794  0.35180222     0.36300
H551        H  0.70109591  0.42589681  0.38729081     0.16700
O552        O  0.74535892  0.42610116  0.42078492    -0.60200
H553        H  0.82385023  0.41199279  0.36279617     0.16700
O554        O  0.77951310  0.41197837  0.32922971    -0.60300
H555        H  0.78202010  0.38680849  0.32663894     0.43700
H556        H  0.73784439  0.40287852  0.42574637     0.43700
C557        C  0.66818660  0.48523968  0.26797452    -0.05400
C558        C  0.67231923  0.47862702  0.24456480    -0.32800
C559        C  0.67201426  0.50562154  0.22876160     0.36400
C560        C  0.66812716  0.53994599  0.23634863    -0.05800
C561        C  0.66530949  0.54662955  0.25978384    -0.32700
C562        C  0.66517408  0.51969057  0.27554326     0.36300
H563        H  0.67485470  0.45239480  0.23838222     0.16700
O564        O  0.67588336  0.49817060  0.20599591    -0.60200
H565        H  0.66209069  0.57281820  0.26592258     0.16700
O566        O  0.66094358  0.52739940  0.29823421    -0.60300
H567        H  0.68472455  0.53187938  0.30407085     0.43700
H568        H  0.65245014  0.49111592  0.20067293     0.43700
C569        C  0.54747605  0.41002253  0.31616171    -0.05400
C570        C  0.52915091  0.39789279  0.29704976    -0.32800
C571        C  0.49290086  0.39746051  0.29667680     0.36400
C572        C  0.47382421  0.40950637  0.31565778    -0.05800
C573        C  0.49201862  0.42203289  0.33479169    -0.32700
C574        C  0.52858102  0.42250685  0.33510746     0.36300
H575        H  0.54296240  0.38831590  0.28220756     0.16700
O576        O  0.47648819  0.38530078  0.27747969    -0.60200
H577        H  0.47791848  0.43143661  0.34956138     0.16700
O578        O  0.54542613  0.43483971  0.35407268    -0.60300
H579        H  0.54810337  0.45992412  0.35133532     0.43700
H580        H  0.47506137  0.36002912  0.27962643     0.43700
C581        C  0.66194516  0.29869516  0.30941515    -0.05400
C582        C  0.66407556  0.28110562  0.33027097    -0.32800
C583        C  0.66319193  0.24523161  0.33110593     0.36400
C584        C  0.66009744  0.22590237  0.31080653    -0.05800
C585        C  0.65879506  0.24333803  0.28979463    -0.32700
C586        C  0.65947229  0.27951819  0.28899357     0.36300
H587        H  0.66613715  0.29524917  0.34618733     0.16700
O588        O  0.66504566  0.22941680  0.35199824    -0.60200
H589        H  0.65636488  0.22895282  0.27400218     0.16700
O590        O  0.65690172  0.29573143  0.26827291    -0.60300
H591        H  0.63159178  0.29948253  0.26581817     0.43700
H592        H  0.69009320  0.22429042  0.35438175     0.43700
In593      In  0.65493811  0.40475386  0.81272234     1.36900
C594        C  0.66036693  0.33678059  0.80992680     0.77600
O595        O  0.71147673  0.40657801  0.82130559    -0.60800
O596        O  0.67505241  0.41945761  0.84729203    -0.51700
C597        C  0.66503697  0.45617943  0.78406304     0.70300
O598        O  0.66977209  0.42507605  0.77827531    -0.46600
C599        C  0.58600654  0.40886712  0.81556244     0.75000
O600        O  0.66498569  0.35581524  0.79269943    -0.58400
O601        O  0.60546872  0.41730745  0.83206486    -0.48500
O602        O  0.65371111  0.35283445  0.82814689    -0.54900
C603        C  0.70665076  0.41523881  0.84185359     0.85200
O604        O  0.65622774  0.46048869  0.80459190    -0.56700
O605        O  0.60210159  0.39874372  0.79805602    -0.60000
In606      In  0.36659136  0.40430544  0.81422626     1.36900
C607        C  0.36217910  0.33568606  0.81281770     0.77600
O608        O  0.41836780  0.39767786  0.79850902    -0.60800
O609        O  0.41667285  0.41775076  0.83228335    -0.51700
C610        C  0.35607744  0.45635024  0.78549758     0.70300
O611        O  0.35048587  0.42527703  0.77997477    -0.46600
C612        C  0.31640927  0.41482170  0.84418399     0.75000
O613        O  0.35248170  0.35438843  0.79625664    -0.58400
O614        O  0.34825380  0.41740839  0.84933895    -0.48500
O615        O  0.37366156  0.35236352  0.82969276    -0.54900
C616        C  0.43528704  0.40845169  0.81553749     0.85200
O617        O  0.36620520  0.46044181  0.80582414    -0.56700
O618        O  0.31051112  0.40812347  0.82344503    -0.60000
In619      In  0.36323722  0.11698279  0.81664273     1.36900
C620        C  0.43214880  0.11102719  0.81735002     0.77600
O621        O  0.35742750  0.06106523  0.80774268    -0.60800
O622        O  0.34966960  0.09790567  0.78143953    -0.51700
C623        C  0.31291870  0.10691396  0.84676092     0.70300
O624        O  0.34471368  0.10229727  0.85162960    -0.46600
C625        C  0.36012079  0.18578705  0.81518394     0.75000
O626        O  0.41379026  0.10269231  0.83437135    -0.58400
O627        O  0.34860329  0.16711144  0.79913268    -0.48500
O628        O  0.41488843  0.12123930  0.80033600    -0.54900
C629        C  0.35099691  0.06638467  0.78690830     0.85200
O630        O  0.30727880  0.11615168  0.82643460    -0.56700
O631        O  0.37239966  0.16900335  0.83177471    -0.60000
In632      In  0.65178624  0.11982127  0.81438377     1.36900
C633        C  0.58294102  0.11326686  0.81701346     0.77600
O634        O  0.64926172  0.17222175  0.82968950    -0.60800
O635        O  0.66273802  0.16850697  0.79463813    -0.51700
C636        C  0.70224125  0.10972837  0.84459093     0.70300
O637        O  0.67039242  0.10873294  0.84991771    -0.46600
C638        C  0.66520325  0.07010453  0.78449116     0.75000
O639        O  0.60296430  0.10133435  0.83223328    -0.58400
O640        O  0.66733782  0.10163958  0.77935589    -0.48500
O641        O  0.59842345  0.12810537  0.80089536    -0.54900
C642        C  0.65738015  0.18789643  0.81166013     0.85200
O643        O  0.70792503  0.11540117  0.82372472    -0.56700
O644        O  0.65690160  0.06443791  0.80494743    -0.60000
In645      In  0.86673102  0.40207607  0.93963961     1.36900
C646        C  0.93580753  0.40449335  0.93760102     0.77600
O647        O  0.86634131  0.45796766  0.94853041    -0.60800
O648        O  0.85055937  0.42246470  0.97397481    -0.51700
C649        C  0.81728761  0.41362563  0.90882634     0.70300
O650        O  0.84923036  0.41273682  0.90367624    -0.46600
C651        C  0.85817000  0.33450915  0.94320626     0.75000
O652        O  0.91668468  0.41672835  0.92199304    -0.58400
O653        O  0.85404155  0.35448305  0.96008107    -0.48500
O654        O  0.91934579  0.39119827  0.95389854    -0.54900
C655        C  0.85602466  0.45356145  0.96872916     0.85200
O656        O  0.81111772  0.40939793  0.92978253    -0.56700
O657        O  0.86605077  0.34936964  0.92483311    -0.60000
In658      In  0.15547340  0.40378284  0.94035065     1.36900
C659        C  0.08650664  0.40676464  0.93889545     0.77600
O660        O  0.14842294  0.35168493  0.92570035    -0.60800
O661        O  0.17105523  0.35478988  0.95871414    -0.51700
C662        C  0.20480280  0.41345726  0.90973776     0.70300
O663        O  0.17304066  0.41901966  0.90532687    -0.46600
C664        C  0.16718615  0.45524713  0.96933920     0.75000
O665        O  0.10498748  0.41501815  0.92193565    -0.58400
O666        O  0.17024543  0.42394787  0.97504689    -0.48500
O667        O  0.10362442  0.39824146  0.95638267    -0.54900
C668        C  0.16068336  0.33562491  0.94258574     0.85200
O669        O  0.21094827  0.40383748  0.92991991    -0.56700
O670        O  0.15917589  0.45982675  0.94866770    -0.60000
In671      In  0.15308043  0.11817818  0.94392581     1.36900
C672        C  0.15872824  0.18642288  0.94539871     0.77600
O673        O  0.20905687  0.11347942  0.93447259    -0.60800
O674        O  0.17126743  0.10287897  0.90891631    -0.51700
C675        C  0.16338762  0.06796074  0.97377355     0.70300
O676        O  0.16881645  0.09926112  0.97865471    -0.46600
C677        C  0.08424992  0.11413271  0.94215953     0.75000
O678        O  0.16737406  0.16769792  0.96214475    -0.58400
O679        O  0.10320499  0.10655875  0.92523231    -0.48500
O680        O  0.14755393  0.16995734  0.92836255    -0.54900
C681        C  0.20315877  0.10558871  0.91393126     0.85200
O682        O  0.15380442  0.06264389  0.95344580    -0.56700
O683        O  0.10078637  0.12345235  0.95970286    -0.60000
In684      In  0.86497947  0.11810458  0.94033124     1.36900
C685        C  0.85788977  0.18598771  0.94325053     0.77600
O686        O  0.91679552  0.12523843  0.95648203    -0.60800
O687        O  0.91539453  0.10507649  0.92273421    -0.51700
C688        C  0.85301699  0.06611806  0.96845483     0.70300
O689        O  0.84646957  0.09709485  0.97380989    -0.46600
C690        C  0.81532558  0.10768952  0.90965193     0.75000
O691        O  0.85247693  0.16661672  0.96020349    -0.58400
O692        O  0.84727803  0.10647566  0.90454040    -0.48500
O693        O  0.86691881  0.17043347  0.92529769    -0.54900
C694        C  0.93383100  0.11437213  0.93954229     0.85200
O695        O  0.86517843  0.06209725  0.94862736    -0.56700
O696        O  0.80928454  0.11318742  0.93051549    -0.60000
In697      In  0.36505579  0.90354934  0.69178833     1.36900
C698        C  0.36006899  0.83499996  0.69327072     0.77600
O699        O  0.30875304  0.90808546  0.68245376    -0.60800
O700        O  0.34623497  0.91639151  0.65646864    -0.51700
C701        C  0.35303438  0.95480049  0.72106501     0.70300
O702        O  0.34931761  0.92345613  0.72650165    -0.46600
C703        C  0.43419345  0.90943381  0.69008327     0.75000
O704        O  0.35147742  0.85377470  0.71005334    -0.58400
O705        O  0.41491927  0.91657704  0.67319597    -0.48500
O706        O  0.37087281  0.85153655  0.67624890    -0.54900
C707        C  0.31438462  0.91448259  0.66167763     0.85200
O708        O  0.36200269  0.95944666  0.70058616    -0.56700
O709        O  0.41784493  0.89976136  0.70756351    -0.60000
In710      In  0.65458677  0.62014661  0.69145221     1.36900
C711        C  0.66079164  0.68819364  0.69382964     0.77600
O712        O  0.71089766  0.61511138  0.68245465    -0.60800
O713        O  0.67299450  0.60625210  0.65658826    -0.51700
C714        C  0.66472167  0.56877654  0.72014549     0.70300
O715        O  0.66909625  0.59990426  0.72591653    -0.46600
C716        C  0.58567255  0.61646818  0.68931648     0.75000
O717        O  0.66866804  0.66890087  0.71045788    -0.58400
O718        O  0.60479229  0.60714804  0.67285124    -0.48500
O719        O  0.65031991  0.67235103  0.67632212    -0.54900
C720        C  0.70488912  0.60786948  0.66180708     0.85200
O721        O  0.65594088  0.56427561  0.69960974    -0.56700
O722        O  0.60213571  0.62707958  0.70656032    -0.60000
In723      In  0.36587122  0.61702407  0.68961963     1.36900
C724        C  0.43489793  0.61271806  0.68789514     0.77600
O725        O  0.37318308  0.66890261  0.67447405    -0.60800
O726        O  0.35004498  0.66663858  0.70725768    -0.51700
C727        C  0.31519934  0.60645322  0.65961166     0.70300
O728        O  0.34700415  0.60304933  0.65450838    -0.46600
C729        C  0.35505545  0.56742056  0.71986842     0.75000
O730        O  0.41598114  0.60259517  0.67151419    -0.58400
O731        O  0.35318557  0.59903905  0.72504589    -0.48500
O732        O  0.41818958  0.62381041  0.70490664    -0.54900
C733        C  0.36063614  0.68542702  0.69109292     0.85200
O734        O  0.30965412  0.61410459  0.68024224    -0.56700
O735        O  0.36169906  0.56148803  0.69913273    -0.60000
In736      In  0.65440605  0.90553741  0.69220267     1.36900
C737        C  0.66014454  0.83739597  0.69399617     0.77600
O738        O  0.60217143  0.90038889  0.70816671    -0.60800
O739        O  0.60397038  0.91899024  0.67418464    -0.51700
C740        C  0.66660620  0.95643993  0.72116319     0.70300
O741        O  0.67006873  0.92510714  0.72670475    -0.46600
C742        C  0.70451465  0.91559481  0.66182986     0.75000
O743        O  0.66878189  0.85620002  0.71073671    -0.58400
O744        O  0.67255125  0.91802619  0.65682154    -0.48500
O745        O  0.64887903  0.85378080  0.67696959    -0.54900
C746        C  0.58524244  0.91072345  0.69102484     0.85200
O747        O  0.65768768  0.96134184  0.70066600    -0.56700
O748        O  0.71054486  0.90911044  0.68256879    -0.60000
In749      In  0.86283701  0.61651174  0.56330774     1.36900
C750        C  0.85971244  0.68495895  0.55997552     0.77600
O751        O  0.80705228  0.61440406  0.57342604    -0.60800
O752        O  0.84507940  0.60288891  0.59865557    -0.51700
C753        C  0.85219838  0.56537530  0.53396131     0.70300
O754        O  0.84804586  0.59667418  0.52854835    -0.46600
C755        C  0.93158559  0.61006444  0.56545553     0.75000
O756        O  0.84786281  0.66561309  0.54441305    -0.58400
O757        O  0.91238090  0.60358376  0.58240243    -0.48500
O758        O  0.87184911  0.66899940  0.57692921    -0.54900
C759        C  0.81317573  0.60641450  0.59390852     0.85200
O760        O  0.86057585  0.56054132  0.55453939    -0.56700
O761        O  0.91532247  0.61962455  0.54784442    -0.60000
In762      In  0.14986168  0.90375074  0.56695780     1.36900
C763        C  0.15434881  0.83530903  0.56428166     0.77600
O764        O  0.20591951  0.90583101  0.57655931    -0.60800
O765        O  0.16876948  0.91932863  0.60191628    -0.51700
C766        C  0.16096601  0.95509220  0.53794756     0.70300
O767        O  0.16792512  0.92401097  0.53312816    -0.46600
C768        C  0.08094783  0.90799552  0.56760892     0.75000
O769        O  0.16068258  0.85456215  0.54740865    -0.58400
O770        O  0.09920811  0.91508103  0.58499144    -0.48500
O771        O  0.14646316  0.85132186  0.58231886    -0.54900
C772        C  0.20053123  0.91497754  0.59694904     0.85200
O773        O  0.14937037  0.95975698  0.55786954    -0.56700
O774        O  0.09820951  0.89878011  0.55035721    -0.60000
In775      In  0.15064036  0.61722301  0.56466658     1.36900
C776        C  0.08205079  0.60940113  0.56670881     0.77600
O777        O  0.14253119  0.66913871  0.58010201    -0.60800
O778        O  0.16342241  0.66724836  0.54663627    -0.51700
C779        C  0.20163177  0.60777467  0.59468468     0.70300
O780        O  0.16995199  0.60345357  0.59967892    -0.46600
C781        C  0.16375485  0.56688546  0.53487571     0.75000
O782        O  0.10162109  0.60203167  0.58339984    -0.58400
O783        O  0.16377856  0.59837596  0.52929326    -0.48500
O784        O  0.09786268  0.62017743  0.54932792    -0.54900
C785        C  0.15378653  0.68582758  0.56326853     0.85200
O786        O  0.20696918  0.61613319  0.57416845    -0.56700
O787        O  0.15789092  0.56158491  0.55575453    -0.60000
In788      In  0.86180187  0.90296225  0.56188379     1.36900
C789        C  0.85940177  0.83448423  0.55866795     0.77600
O790        O  0.91427931  0.89980255  0.54591683    -0.60800
O791        O  0.91122463  0.91755477  0.58015995    -0.51700
C792        C  0.84924326  0.95366809  0.53261108     0.70300
O793        O  0.84725116  0.92225512  0.52696339    -0.46600
C794        C  0.81266780  0.91252574  0.59326915     0.75000
O795        O  0.84597232  0.85376458  0.54361896    -0.58400
O796        O  0.84468602  0.91579360  0.59770268    -0.48500
O797        O  0.87333608  0.85050387  0.57500381    -0.54900
C798        C  0.93048466  0.91007835  0.56336217     0.85200
O799        O  0.85643089  0.95876450  0.55335720    -0.56700
O800        O  0.80617193  0.90474091  0.57278362    -0.60000
C801        C  0.15562225  0.79708312  0.56340188    -0.05400
C802        C  0.15552061  0.77858817  0.58397607    -0.32800
C803        C  0.15526207  0.74255038  0.58407948     0.36400
C804        C  0.15529309  0.72402694  0.56332940    -0.05800
C805        C  0.15589708  0.74241142  0.54269276    -0.32700
C806        C  0.15596776  0.77863937  0.54260989     0.36300
H807        H  0.15557330  0.79211201  0.60018283     0.16700
O808        O  0.15598172  0.72570369  0.60464892    -0.60200
H809        H  0.15560724  0.72869018  0.52656521     0.16700
O810        O  0.15493124  0.79565076  0.52212610    -0.60300
H811        H  0.17958528  0.79815326  0.51753926     0.43700
H812        H  0.13149571  0.72545028  0.60990994     0.43700
C813        C  0.04247264  0.91021177  0.56694222    -0.05400
C814        C  0.02542409  0.90592579  0.54589681    -0.32800
C815        C  0.98914868  0.90685306  0.54438314     0.36400
C816        C  0.96895794  0.91191731  0.56420238    -0.05800
C817        C  0.98596579  0.91701767  0.58519793    -0.32700
C818        C  0.02239572  0.91634731  0.58666087     0.36300
H819        H  0.04025441  0.90177450  0.53040944     0.16700
O820        O  0.97381606  0.90333148  0.52333320    -0.60200
H821        H  0.97099178  0.92092076  0.60064573     0.16700
O822        O  0.03793565  0.92067137  0.60755504    -0.60300
H823        H  0.04143099  0.94586472  0.60909557     0.43700
H824        H  0.97315763  0.87816527  0.52041783     0.43700
C825        C  0.04365033  0.60649738  0.56702295    -0.05400
C826        C  0.02561146  0.60868799  0.54622424    -0.32800
C827        C  0.98934110  0.60883347  0.54553621     0.36400
C828        C  0.97004152  0.60723181  0.56595455    -0.05800
C829        C  0.98796539  0.60392142  0.58680187    -0.32700
C830        C  0.02452722  0.60335304  0.58743339     0.36300
H831        H  0.03969799  0.61066134  0.53027796     0.16700
O832        O  0.97311651  0.61114458  0.52470764    -0.60200
H833        H  0.97366196  0.60252039  0.60268767     0.16700
O834        O  0.04116041  0.60136659  0.60812638    -0.60300
H835        H  0.04331398  0.57637296  0.61134290     0.43700
H836        H  0.96821365  0.58699075  0.52018472     0.43700
C837        C  0.86002283  0.72318506  0.55879013    -0.05400
C838        C  0.84116254  0.74097740  0.54185831    -0.32800
C839        C  0.84077176  0.77725736  0.54127701     0.36400
C840        C  0.85943559  0.79624269  0.55779950    -0.05800
C841        C  0.87876315  0.77828364  0.57432164    -0.32700
C842        C  0.87945851  0.74237081  0.57480285     0.36300
H843        H  0.82639316  0.72679114  0.52921190     0.16700
O844        O  0.82212840  0.79374952  0.52452769    -0.60200
H845        H  0.89373722  0.79213690  0.58703400     0.16700
O846        O  0.89940150  0.72637519  0.59113417    -0.60300
H847        H  0.92230757  0.72221811  0.58376328     0.43700
H848        H  0.79838396  0.79654992  0.53083391     0.43700
C849        C  0.73251102  0.91849758  0.64456797    -0.05400
C850        C  0.72372346  0.91835880  0.62130342    -0.32800
C851        C  0.74949768  0.91746436  0.60447920     0.36400
C852        C  0.78499198  0.91661288  0.61070492    -0.05800
C853        C  0.79385799  0.91840317  0.63395608    -0.32700
C854        C  0.76801107  0.91919502  0.65082469     0.36300
H855        H  0.69667565  0.91799400  0.61605607     0.16700
O856        O  0.73952527  0.91661717  0.58199315    -0.60200
H857        H  0.82093273  0.91826300  0.63915528     0.16700
O858        O  0.77781651  0.92068802  0.67333836    -0.60300
H859        H  0.78272272  0.89649035  0.67775410     0.43700
H860        H  0.73950827  0.94102114  0.57699596     0.43700
C861        C  0.23037532  0.60420616  0.61144495    -0.05400
C862        C  0.26497138  0.60387871  0.60371252    -0.32800
C863        C  0.29286459  0.60299498  0.61912658     0.36400
C864        C  0.28650832  0.60314920  0.64281668    -0.05800
C865        C  0.25191458  0.60250118  0.65054397    -0.32700
C866        C  0.22401623  0.60272537  0.63511936     0.36300
H867        H  0.27051928  0.60479505  0.58559715     0.16700
O868        O  0.32616858  0.60372761  0.61079056    -0.60200
H869        H  0.24636822  0.60248377  0.66867306     0.16700
O870        O  0.19070795  0.60325816  0.64347498    -0.60300
H871        H  0.18440383  0.57870167  0.64545236     0.43700
H872        H  0.33277822  0.57920782  0.60856396     0.43700
C873        C  0.73275671  0.60332342  0.64473167    -0.05400
C874        C  0.72409293  0.60524675  0.62151017    -0.32800
C875        C  0.74988380  0.60501415  0.60477549     0.36400
C876        C  0.78526559  0.60276630  0.61108334    -0.05800
C877        C  0.79389318  0.59891475  0.63426838    -0.32700
C878        C  0.76798281  0.59934630  0.65106974     0.36300
H879        H  0.69719183  0.60815315  0.61624484     0.16700
O880        O  0.74011201  0.60827722  0.58235178    -0.60200
H881        H  0.82086871  0.59662744  0.63949286     0.16700
O882        O  0.77740054  0.59578438  0.67355324    -0.60300
H883        H  0.78480681  0.61906719  0.67851289     0.43700
H884        H  0.73609452  0.58439166  0.57694186     0.43700
C885        C  0.54712459  0.61534714  0.68867167    -0.05400
C886        C  0.52965348  0.60124296  0.66973291    -0.32800
C887        C  0.49312036  0.60000030  0.66905034     0.36400
C888        C  0.47348897  0.61270800  0.68760573    -0.05800
C889        C  0.49109396  0.62689988  0.70639876    -0.32700
C890        C  0.52731594  0.62869983  0.70693914     0.36300
H891        H  0.54430641  0.59123995  0.65537139     0.16700
O892        O  0.47701368  0.58696066  0.65001495    -0.60200
H893        H  0.47671455  0.63725750  0.72077459     0.16700
O894        O  0.54295940  0.64376888  0.72548964    -0.60300
H895        H  0.54430268  0.66868313  0.72170549     0.43700
H896        H  0.47534845  0.56185538  0.65274137     0.43700
C897        C  0.66239874  0.79925658  0.69400012    -0.05400
C898        C  0.67036240  0.78117932  0.71413671    -0.32800
C899        C  0.67080433  0.74496284  0.71440108     0.36400
C900        C  0.66292082  0.72630742  0.69435531    -0.05800
C901        C  0.65591434  0.74450133  0.67418136    -0.32700
C902        C  0.65560918  0.78042795  0.67385085     0.36300
H903        H  0.67575849  0.79509988  0.72979049     0.16700
O904        O  0.67795136  0.72821351  0.73446798    -0.60200
H905        H  0.65027865  0.73084293  0.65845736     0.16700
O906        O  0.64898681  0.79679762  0.65354513    -0.60300
H907        H  0.62328912  0.79769552  0.65224964     0.43700
H908        H  0.70353678  0.72464342  0.73447705     0.43700
C909        C  0.28575217  0.91822696  0.64485205    -0.05400
C910        C  0.25137472  0.92260569  0.65254806    -0.32800
C911        C  0.22339305  0.92326861  0.63715304     0.36400
C912        C  0.22943109  0.91884289  0.61358366    -0.05800
C913        C  0.26391623  0.91573004  0.60586323    -0.32700
C914        C  0.29187776  0.91536581  0.62121198     0.36300
H915        H  0.24605018  0.92501127  0.67064118     0.16700
O916        O  0.19024280  0.92674828  0.64549258    -0.60200
H917        H  0.26930026  0.91258004  0.58782771     0.16700
O918        O  0.32496005  0.91108030  0.61289507    -0.60300
H919        H  0.32823225  0.88578096  0.61141836     0.43700
H920        H  0.18572296  0.95194278  0.64581545     0.43700
C921        C  0.35850913  0.79675062  0.69306713    -0.05400
C922        C  0.37199166  0.77906829  0.67407244    -0.32800
C923        C  0.37258968  0.74310732  0.67320332     0.36400
C924        C  0.35914103  0.72367886  0.69148495    -0.05800
C925        C  0.34490289  0.74125733  0.71033360    -0.32700
C926        C  0.34457596  0.77747591  0.71124715     0.36300
H927        H  0.38270547  0.79316232  0.65979346     0.16700
O928        O  0.38640413  0.72733728  0.65426441    -0.60200
H929        H  0.33421564  0.72692248  0.72450901     0.16700
O930        O  0.33014383  0.79363721  0.72981498    -0.60300
H931        H  0.34915834  0.79499901  0.74123835     0.43700
H932        H  0.41178642  0.72598822  0.65721064     0.43700
C933        C  0.47279495  0.91163400  0.68983009    -0.05400
C934        C  0.49105236  0.90712528  0.71041015    -0.32800
C935        C  0.52740269  0.90744611  0.71104221     0.36400
C936        C  0.54661083  0.91228829  0.69080046    -0.05800
C937        C  0.52845087  0.91750581  0.67021898    -0.32700
C938        C  0.49188239  0.91699761  0.66959062     0.36300
H939        H  0.47709379  0.90303428  0.72621776     0.16700
O940        O  0.54378855  0.90241956  0.73160619    -0.60200
H941        H  0.54261462  0.92123814  0.65445313     0.16700
O942        O  0.47521470  0.92131502  0.64906661    -0.60300
H943        H  0.47365186  0.89784098  0.64238877     0.43700
H944        H  0.54803385  0.92587895  0.73772481     0.43700
C945        C  0.84545148  0.98222706  0.51607371    -0.05400
C946        C  0.84935903  0.97547204  0.49267722    -0.32800
C947        C  0.85076151  0.00243579  0.97688685     0.36400
C948        C  0.84795425  0.03695920  0.98435289    -0.05800
C949        C  0.84207014  0.04358746  0.50759398    -0.32700
C950        C  0.84091620  0.01662920  0.52340775     0.36300
H951        H  0.85281755  0.94925220  0.48665897     0.16700
O952        O  0.85615606  0.99468476  0.95430901    -0.60200
H953        H  0.83956530  0.06985984  0.51370447     0.16700
O954        O  0.83647712  0.02439381  0.54607352    -0.60300
H955        H  0.81124019  0.02149887  0.54893658     0.43700
H956        H  0.83259317  0.99157538  0.94774348     0.43700
C957        C  0.16660446  0.03957867  0.99049707    -0.05400
C958        C  0.16807432  0.00539484  0.98260214    -0.32800
C959        C  0.16723453  0.97768066  0.49784405     0.36400
C960        C  0.16496490  0.98381004  0.52152569    -0.05800
C961        C  0.16441947  0.01803815  0.52946344    -0.32700
C962        C  0.16553806  0.04577840  0.51419949     0.36300
H963        H  0.16898162  0.00003182  0.96444930     0.16700
O964        O  0.16741452  0.94474933  0.48928875    -0.60200
H965        H  0.16257980  0.02337406  0.54758665     0.16700
O966        O  0.16352885  0.07874122  0.52261742    -0.60300
H967        H  0.18795379  0.08548184  0.52569015     0.43700
H968        H  0.14261322  0.93896089  0.98682781     0.43700
C969        C  0.97227818  0.11294707  0.93977796    -0.05400
C970        C  0.98978792  0.11652221  0.96069505    -0.32800
C971        C  0.02608182  0.11625293  0.96173685     0.36400
C972        C  0.04578490  0.11274579  0.94155739    -0.05800
C973        C  0.02831506  0.10871991  0.92063085    -0.32700
C974        C  0.99186202  0.10893152  0.91962065     0.36300
H975        H  0.97528520  0.11949680  0.97642951     0.16700
O976        O  0.04190928  0.11972519  0.98262614    -0.60200
H977        H  0.04292305  0.10602346  0.90492474     0.16700
O978        O  0.97575936  0.10572133  0.89881681    -0.60300
H979        H  0.97279637  0.12966371  0.89317387     0.43700
H980        H  0.04588709  0.09582280  0.98806406     0.43700
C981        C  0.17085424  0.48416895  0.98577206    -0.05400
C982        C  0.17337872  0.47715387  0.50922187    -0.32800
C983        C  0.17242952  0.50384306  0.52535815     0.36400
C984        C  0.16883771  0.53842194  0.51820717    -0.05800
C985        C  0.16827009  0.54554592  0.49471990    -0.32700
C986        C  0.16918108  0.51884704  0.97857380     0.36300
H987        H  0.17495968  0.45078245  0.01518028     0.16700
O988        O  0.17394900  0.49561552  0.54809620    -0.60200
H989        H  0.16603040  0.57189218  0.48878525     0.16700
O990        O  0.16823989  0.52702591  0.95580641    -0.60300
H991        H  0.14330307  0.53083558  0.95221290     0.43700
H992        H  0.19904557  0.49616710  0.55207146     0.43700
C993        C  0.16095246  0.22454584  0.94519145    -0.05400
C994        C  0.15146101  0.24198679  0.92514405    -0.32800
C995        C  0.15181896  0.27787277  0.92404592     0.36400
C996        C  0.16193268  0.29744731  0.94325509    -0.05800
C997        C  0.17210602  0.28010634  0.96326269    -0.32700
C998        C  0.17178409  0.24392587  0.96431111     0.36300
H999        H  0.14338851  0.22777151  0.91011201     0.16700
O1000       O  0.14250096  0.29343319  0.90390991    -0.60200
H1001       H  0.17994186  0.29459590  0.97822783     0.16700
O1002       O  0.18133134  0.22794851  0.98423301    -0.60300
H1003       H  0.20688737  0.22469283  0.98309408     0.43700
H1004       H  0.11674878  0.29496271  0.90429517     0.43700
C1005       C  0.85170170  0.48243493  0.98507307    -0.05400
C1006       C  0.84751625  0.47542306  0.00840282    -0.32800
C1007       C  0.84666973  0.50218118  0.52448651     0.36400
C1008       C  0.84930549  0.53676330  0.51731854    -0.05800
C1009       C  0.85187698  0.54383217  0.49390464    -0.32700
C1010       C  0.85328227  0.51708330  0.97786074     0.36300
H1011       H  0.84598246  0.44904252  0.01432792     0.16700
O1012       O  0.84314399  0.49417656  0.54715993    -0.60200
H1013       H  0.85407712  0.57018630  0.48802422     0.16700
O1014       O  0.85724990  0.52521000  0.95524340    -0.60300
H1015       H  0.83325647  0.52706784  0.94909445     0.43700
H1016       H  0.86696852  0.48833663  0.55248856     0.43700
C1017       C  0.97433171  0.40545525  0.93731646    -0.05400
C1018       C  0.99264217  0.39261206  0.95625883    -0.32800
C1019       C  0.02893940  0.39304723  0.95697159     0.36400
C1020       C  0.04795700  0.40645686  0.93845329    -0.05800
C1021       C  0.02973623  0.41901767  0.91934807    -0.32700
C1022       C  0.99322144  0.41871278  0.91871306     0.36300
H1023       H  0.97879371  0.38204988  0.97071646     0.16700
O1024       O  0.04548252  0.37932878  0.97566667    -0.60200
H1025       H  0.04379414  0.42916009  0.90485128     0.16700
O1026       O  0.97639917  0.43077969  0.89964846    -0.60300
H1027       H  0.97386435  0.45592374  0.90213880     0.43700
H1028       H  0.04615279  0.39823426  0.98706265     0.43700
C1029       C  0.85451108  0.22390652  0.94401204    -0.05400
C1030       C  0.85976476  0.24197406  0.96453301    -0.32800
C1031       C  0.86017273  0.27816838  0.96479580     0.36400
C1032       C  0.85474747  0.29665828  0.94438120    -0.05800
C1033       C  0.84815213  0.27847224  0.92412822    -0.32700
C1034       C  0.84787633  0.24253764  0.92383019     0.36300
H1035       H  0.86496086  0.22804937  0.98019694     0.16700
O1036       O  0.86729351  0.29505863  0.98484594    -0.60200
H1037       H  0.84362465  0.29219276  0.90829193     0.16700
O1038       O  0.84158432  0.22589311  0.90355844    -0.60300
H1039       H  0.81624218  0.22121200  0.90351546     0.43700
H1040       H  0.89298900  0.29774649  0.98510432     0.43700
C1041       C  0.73085966  0.10558225  0.86133751    -0.05400
C1042       C  0.76546468  0.10456090  0.85361559    -0.32800
C1043       C  0.79331111  0.10357535  0.86905380     0.36400
C1044       C  0.78685442  0.10432440  0.89273177    -0.05800
C1045       C  0.75223909  0.10395848  0.90041626    -0.32700
C1046       C  0.72441489  0.10421295  0.88499183     0.36300
H1047       H  0.77107303  0.10513154  0.83550087     0.16700
O1048       O  0.82663862  0.10337667  0.86073581    -0.60200
H1049       H  0.74658699  0.10412360  0.91852999     0.16700
O1050       O  0.69110305  0.10456607  0.89333893    -0.60300
H1051       H  0.68459033  0.07994522  0.89471786     0.43700
H1052       H  0.83300747  0.07865062  0.85929720     0.43700
C1053       C  0.67056462  0.04171188  0.76797560    -0.05400
C1054       C  0.67354387  0.00779068  0.77611684    -0.32800
C1055       C  0.67389023  0.97975489  0.76107393     0.36400
C1056       C  0.67116548  0.98534874  0.73737713    -0.05800
C1057       C  0.67021715  0.01936308  0.72917476    -0.32700
C1058       C  0.66996851  0.04741878  0.74423345     0.36300
H1059       H  0.67454504  0.00283301  0.79430476     0.16700
O1060       O  0.67585258  0.94703905  0.76982459    -0.60200
H1061       H  0.66857912  0.02430133  0.71100386     0.16700
O1062       O  0.66793595  0.08015872  0.73552572    -0.60300
H1063       H  0.64276886  0.08456187  0.73310715     0.43700
H1064       H  0.65149139  0.94062582  0.77329542     0.43700
C1065       C  0.28459170  0.10292900  0.86365832    -0.05400
C1066       C  0.29281274  0.10009936  0.88694235    -0.32800
C1067       C  0.26658325  0.09998131  0.90350426     0.36400
C1068       C  0.23129158  0.10172819  0.89688123    -0.05800
C1069       C  0.22302831  0.10268716  0.87354587    -0.32700
C1070       C  0.24925586  0.10380431  0.85701999     0.36300
H1071       H  0.31973670  0.09927955  0.89244987     0.16700
O1072       O  0.27582144  0.09841745  0.92611419    -0.60200
H1073       H  0.19611303  0.10406953  0.86805727     0.16700
O1074       O  0.23995094  0.10601215  0.83444716    -0.60300
H1075       H  0.23562324  0.13090716  0.83167176     0.43700
H1076       H  0.28135934  0.12250526  0.93050834     0.43700
C1077       C  0.34859007  0.98376784  0.73749410    -0.05400
C1078       C  0.34218426  0.97689765  0.76064898    -0.32800
C1079       C  0.34174037  0.00357794  0.77688049     0.36400
C1080       C  0.34722760  0.03799893  0.77005062    -0.05800
C1081       C  0.35182653  0.04501525  0.74677019    -0.32700
C1082       C  0.35266361  0.01838472  0.73059997     0.36300
H1083       H  0.33857542  0.95062274  0.76636102     0.16700
O1084       O  0.33588350  0.99565900  0.79935375    -0.60200
H1085       H  0.35615490  0.07120624  0.74110689     0.16700
O1086       O  0.35895102  0.02653951  0.70822308    -0.60300
H1087       H  0.33567602  0.03060073  0.70139180     0.43700
H1088       H  0.35881617  0.98824592  0.80545155     0.43700
C1089       C  0.47074915  0.10998409  0.81718086    -0.05400
C1090       C  0.48945071  0.09598538  0.83566613    -0.32800
C1091       C  0.52604926  0.09604660  0.83584813     0.36400
C1092       C  0.54446026  0.11080954  0.81751471    -0.05800
C1093       C  0.52564378  0.12429134  0.79900298    -0.32700
C1094       C  0.48938914  0.12397303  0.79867868     0.36300
H1095       H  0.47571160  0.08504733  0.85003837     0.16700
O1096       O  0.54337935  0.08226067  0.85419209    -0.60200
H1097       H  0.53906452  0.13551718  0.78459240     0.16700
O1098       O  0.47255020  0.13760926  0.78007297    -0.60300
H1099       H  0.46987013  0.16253049  0.78350746     0.43700
H1100       H  0.54678485  0.05757071  0.85033213     0.43700
C1101       C  0.28811458  0.41794060  0.86109144    -0.05400
C1102       C  0.25338441  0.41926848  0.85356287    -0.32800
C1103       C  0.22586633  0.41875263  0.86916201     0.36400
C1104       C  0.23287913  0.41698559  0.89275511    -0.05800
C1105       C  0.26759803  0.41656835  0.90026545    -0.32700
C1106       C  0.29506659  0.41721238  0.88470817     0.36300
H1107       H  0.24745173  0.41988186  0.83547469     0.16700
O1108       O  0.19233541  0.41897710  0.86108626    -0.60200
H1109       H  0.27358513  0.41515946  0.91832587     0.16700
O1110       O  0.32852682  0.41531453  0.89281653    -0.60300
H1111       H  0.33544629  0.43952916  0.89561016     0.43700
H1112       H  0.18652631  0.39438873  0.85845024     0.43700
C1113       C  0.35224721  0.48550181  0.76927647    -0.05400
C1114       C  0.34473819  0.47875548  0.74622351    -0.32800
C1115       C  0.34410648  0.50537434  0.73011375     0.36400
C1116       C  0.35129732  0.53951719  0.73686213    -0.05800
C1117       C  0.35712769  0.54657235  0.76005027    -0.32700
C1118       C  0.35761802  0.51999867  0.77620073     0.36300
H1119       H  0.34008419  0.45260610  0.74050982     0.16700
O1120       O  0.33701172  0.49755229  0.70774441    -0.60200
H1121       H  0.36252178  0.57265809  0.76562153     0.16700
O1122       O  0.36457437  0.52803626  0.79855591    -0.60300
H1123       H  0.34163307  0.53369257  0.80536872     0.43700
H1124       H  0.31159744  0.50144835  0.70597008     0.43700
C1125       C  0.36077327  0.29735637  0.81294306    -0.05400
C1126       C  0.37287267  0.27961437  0.83231228    -0.32800
C1127       C  0.37249132  0.24359751  0.83331391     0.36400
C1128       C  0.35984898  0.22416361  0.81466801    -0.05800
C1129       C  0.34755652  0.24184126  0.79529433    -0.32700
C1130       C  0.34810777  0.27805372  0.79428335     0.36300
H1131       H  0.38290516  0.29370467  0.84687799     0.16700
O1132       O  0.38517731  0.22776708  0.85255149    -0.60200
H1133       H  0.33775718  0.22756445  0.78074868     0.16700
O1134       O  0.33599641  0.29419855  0.77502617    -0.60300
H1135       H  0.35626424  0.29517440  0.76458938     0.43700
H1136       H  0.36512227  0.22655655  0.86314456     0.43700
C1137       C  0.73552864  0.41865558  0.85849766    -0.05400
C1138       C  0.72783080  0.42305622  0.88173482    -0.32800
C1139       C  0.75421484  0.42239633  0.89823739     0.36400
C1140       C  0.78923838  0.41786127  0.89163693    -0.05800
C1141       C  0.79713220  0.41526755  0.86829786    -0.32700
C1142       C  0.77066451  0.41536354  0.85180494     0.36300
H1143       H  0.70109307  0.42589007  0.88729130     0.16700
O1144       O  0.74535419  0.42609083  0.92078672    -0.60200
H1145       H  0.82384811  0.41197545  0.86280033     0.16700
O1146       O  0.77951333  0.41196041  0.82923273    -0.60300
H1147       H  0.78201925  0.38679233  0.82664362     0.43700
H1148       H  0.73784142  0.40286676  0.92574846     0.43700
C1149       C  0.66820604  0.48524828  0.76797539    -0.05400
C1150       C  0.67233081  0.47863655  0.74456497    -0.32800
C1151       C  0.67201912  0.50563160  0.72876228     0.36400
C1152       C  0.66813347  0.53995577  0.73635039    -0.05800
C1153       C  0.66532508  0.54663857  0.75978622    -0.32700
C1154       C  0.66519651  0.51969889  0.77554516     0.36300
H1155       H  0.67486348  0.45240454  0.73838156     0.16700
O1156       O  0.67587806  0.49818104  0.70599570    -0.60200
H1157       H  0.66210855  0.57282701  0.76592593     0.16700
O1158       O  0.66097604  0.52740664  0.79823716    -0.60300
H1159       H  0.68475741  0.53188528  0.80406890     0.43700
H1160       H  0.65244335  0.49112888  0.70067723     0.43700
C1161       C  0.54747520  0.41003975  0.81615531    -0.05400
C1162       C  0.52914950  0.39791433  0.79704234    -0.32800
C1163       C  0.49289904  0.39748005  0.79667021     0.36400
C1164       C  0.47382219  0.40952070  0.81565269    -0.05800
C1165       C  0.49201722  0.42204461  0.83478712    -0.32700
C1166       C  0.52857998  0.42251935  0.83510249     0.36300
H1167       H  0.54296090  0.38834110  0.78219904     0.16700
O1168       O  0.47648591  0.38532235  0.77747275    -0.60200
H1169       H  0.47791719  0.43144438  0.84955791     0.16700
O1170       O  0.54542525  0.43484735  0.85406897    -0.60300
H1171       H  0.54810623  0.45993297  0.85133302     0.43700
H1172       H  0.47506322  0.36004979  0.77961700     0.43700
C1173       C  0.66193268  0.29869939  0.80940876    -0.05400
C1174       C  0.66407069  0.28110943  0.83026410    -0.32800
C1175       C  0.66318726  0.24523531  0.83109914     0.36400
C1176       C  0.66008467  0.22590579  0.81080027    -0.05800
C1177       C  0.65877347  0.24334190  0.78978856    -0.32700
C1178       C  0.65945096  0.27952237  0.78898754     0.36300
H1179       H  0.66613906  0.29525273  0.84618017     0.16700
O1180       O  0.66505011  0.22942048  0.85199119    -0.60200
H1181       H  0.65633726  0.22895685  0.77399640     0.16700
O1182       O  0.65687344  0.29573594  0.76826740    -0.60300
H1183       H  0.63156252  0.29949130  0.76581774     0.43700
H1184       H  0.69009909  0.22430310  0.85437292     0.43700
loop_ 
_geom_bond_atom_site_label_1 
_geom_bond_atom_site_label_2 
_geom_bond_distance 
_geom_bond_site_symmetry_2 
_ccdc_geom_bond_type 
In1           O3   2.231       .  S
In1           O4   2.240       .  S
In1          O12   2.216       .  S
In1           O6   2.244       .  S
In1           O8   2.261       .  S
In1           O9   2.265       .  S
In1          O10   2.210       .  S
In1          O13   2.216       .  S
C2            O8   1.265       .  A
C2           O10   1.260       .  A
C2          C581   1.479       .  S
O3           C11   1.263       .  A
O4           C11   1.266       .  A
C5           O12   1.260       .  A
C5            O6   1.265       .  A
C5          C557   1.477       .  S
C7            O9   1.265       .  A
C7           O13   1.260       .  A
C7          C569   1.482       .  S
C11         C545   1.482       .  S
In14         O16   2.208       .  S
In14         O17   2.257       .  S
In14         O25   2.234       .  S
In14         O19   2.251       .  S
In14         O21   2.270       .  S
In14         O22   2.232       .  S
In14         O23   2.227       .  S
In14         O26   2.227       .  S
C15          O21   1.267       .  A
C15          O23   1.260       .  A
C15         C533   1.488       .  S
O16          C24   1.261       .  A
O17          C24   1.266       .  A
C18          O25   1.262       .  A
C18          O19   1.267       .  A
C18         C521   1.485       .  S
C20          O22   1.264       .  A
C20          O26   1.262       .  A
C20         C509   1.477       .  S
C24         C572   1.482       .  S
In27         O29   2.242       .  S
In27         O30   2.250       .  S
In27         O38   2.227       .  S
In27         O32   2.247       .  S
In27         O34   2.268       .  S
In27         O35   2.268       .  S
In27         O36   2.212       .  S
In27         O39   2.232       .  S
C28          O34   1.266       .  A
C28          O36   1.259       .  A
C28         C497   1.484       .  S
O29          C37   1.262       .  A
O30          C37   1.266       .  A
C31          O38   1.262       .  A
C31          O32   1.266       .  A
C31         C473   1.482       .  S
C33          O35   1.266       .  A
C33          O39   1.260       .  A
C33         C536   1.489       .  S
C37         C488   1.485       .  S
In40         O42   2.222       .  S
In40         O43   2.259       .  S
In40         O51   2.230       .  S
In40         O45   2.241       .  S
In40         O47   2.270       .  S
In40         O48   2.249       .  S
In40         O49   2.218       .  S
In40         O52   2.225       .  S
C41          O47   1.263       .  A
C41          O49   1.259       .  A
C41         C500   1.483       .  S
O42          C50   1.260       .  A
O43          C50   1.264       .  A
C44          O51   1.262       .  A
C44          O45   1.265       .  A
C44         C449   1.480       .  S
C46          O48   1.264       .  A
C46          O52   1.261       .  A
C46         C461   1.478       .  S
C50         C584   1.480       .  S
In53         O55   2.229       .  S
In53         O56   2.247       .  S
In53         O64   2.229       .  S
In53         O58   2.248       .  S
In53         O60   2.258       .  S
In53         O61   2.259       .  S
In53         O62   2.225       .  S
In53         O65   2.220       .  S
C54          O60   1.264       .  A
C54          O62   1.259       .  A
C54         C425   1.481       .  S
O55          C63   1.261       .  A
O56          C63   1.264       .  A
C57          O64   1.262       .  A
C57          O58   1.265       .  A
C57         C548   1.482       .  S
C59          O61   1.264       .  A
C59          O65   1.260       .  A
C59         C440   1.477       .  S
C63         C413   1.481       .  S
In66         O68   2.212       .  S
In66         O69   2.263       .  S
In66         O77   2.219       .  S
In66         O71   2.243       .  S
In66         O73   2.259       .  S
In66         O74   2.249       .  S
In66         O75   2.216       .  S
In66         O78   2.233       .  S
C67          O73   1.265       .  A
C67          O75   1.260       .  A
C67         C428   1.482       .  S
O68          C76   1.259       .  A
O69          C76   1.266       .  A
C70          O77   1.262       .  A
C70          O71   1.265       .  A
C70         C512   1.476       .  S
C72          O74   1.265       .  A
C72          O78   1.261       .  A
C72         C389   1.484       .  S
C76         C404   1.482       .  S
In79         O81   2.229       .  S
In79         O82   2.245       .  S
In79         O90   2.227       .  S
In79         O84   2.245       .  S
In79         O86   2.265       .  S
In79         O87   2.252       .  S
In79         O88   2.217       .  S
In79         O91   2.222       .  S
C80          O86   1.265       .  A
C80          O88   1.260       .  A
C80         C401   1.482       .  S
O81          C89   1.261       .  A
O82          C89   1.265       .  A
C83          O90   1.262       .  A
C83          O84   1.265       .  A
C83         C365   1.480       .  S
C85          O87   1.265       .  A
C85          O91   1.260       .  A
C85         C380   1.480       .  S
C89         C476   1.480       .  S
In92         O94   2.221       .  S
In92         O95   2.251       .  S
In92        O103   2.228       .  S
In92         O97   2.244       .  S
In92         O99   2.261       .  S
In92        O100   2.248       .  S
In92        O101   2.217       .  S
In92        O104   2.224       .  S
C93          O99   1.265       .  A
C93         O101   1.260       .  A
C93         C437   1.477       .  S
O94         C102   1.260       .  A
O95         C102   1.265       .  A
C96         O103   1.262       .  A
C96          O97   1.266       .  A
C96         C356   1.481       .  S
C98         O100   1.265       .  A
C98         O104   1.262       .  A
C98         C452   1.481       .  S
C102        C377   1.478       .  S
In105       O107   2.237       .  S
In105       O108   2.246       .  S
In105       O116   2.231       .  S
In105       O110   2.256       .  S
In105       O112   2.274       .  S
In105       O113   2.266       .  S
In105       O114   2.222       .  S
In105       O117   2.232       .  S
C106        O112   1.266       .  A
C106        O114   1.259       .  A
C106        C329   1.486       .  S
O107        C115   1.262       .  A
O108        C115   1.265       .  A
C109        O116   1.262       .  A
C109        O110   1.267       .  A
C109        C485   1.487       .  S
C111        O113   1.265       .  A
C111        O117   1.261       .  A
C111        C341   1.486       .  S
C115        C317   1.482       .  S
In118       O120   2.236       .  S
In118       O121   2.227       .  S
In118       O129   2.221       .  S
In118       O123   2.236       .  S
In118       O125   2.260       .  S
In118       O126   2.259       .  S
In118       O127   2.218       .  S
In118       O130   2.218       .  S
C119        O125   1.265       .  A
C119        O127   1.261       .  A
C119        C308   1.482       .  S
O120        C128   1.262       .  A
O121        C128   1.264       .  A
C122        O129   1.261       .  A
C122        O123   1.265       .  A
C122        C560   1.474       .  S
C124        O126   1.265       .  A
C124        O130   1.260       .  A
C124        C293   1.483       .  S
C128        C281   1.477       .  S
In131       O133   2.221       .  S
In131       O134   2.264       .  S
In131       O142   2.231       .  S
In131       O136   2.245       .  S
In131       O138   2.267       .  S
In131       O139   2.246       .  S
In131       O140   2.216       .  S
In131       O143   2.234       .  S
C132        O138   1.266       .  A
C132        O140   1.260       .  A
C132        C296   1.483       .  S
O133        C141   1.260       .  A
O134        C141   1.266       .  A
C135        O142   1.262       .  A
C135        O136   1.265       .  A
C135        C272   1.482       .  S
C137        O139   1.265       .  A
C137        O143   1.262       .  A
C137        C524   1.480       .  S
C141        C332   1.485       .  S
In144       O146   2.226       .  S
In144       O147   2.264       .  S
In144       O155   2.224       .  S
In144       O149   2.240       .  S
In144       O151   2.268       .  S
In144       O152   2.243       .  S
In144       O153   2.207       .  S
In144       O156   2.236       .  S
C145        O151   1.266       .  A
C145        O153   1.259       .  A
C145        C305   1.482       .  S
O146        C154   1.260       .  A
O147        C154   1.265       .  A
C148        O155   1.262       .  A
C148        O149   1.265       .  A
C148        C464   1.479       .  S
C150        O152   1.265       .  A
C150        O156   1.262       .  A
C150        C257   1.483       .  S
C154        C344   1.486       .  S
In157       O159   2.227       .  S
In157       O160   2.246       .  S
In157       O168   2.233       .  S
In157       O162   2.248       .  S
In157       O164   2.276       .  S
In157       O165   2.261       .  S
In157       O166   2.214       .  S
In157       O169   2.217       .  S
C158        O164   1.265       .  A
C158        O166   1.259       .  A
C158        C245   1.485       .  S
O159        C167   1.261       .  A
O160        C167   1.263       .  A
C161        O168   1.261       .  A
C161        O162   1.265       .  A
C161        C416   1.480       .  S
C163        O165   1.265       .  A
C163        O169   1.260       .  A
C163        C236   1.482       .  S
C167        C284   1.480       .  S
In170       O172   2.227       .  S
In170       O173   2.254       .  S
In170       O181   2.238       .  S
In170       O175   2.246       .  S
In170       O177   2.261       .  S
In170       O178   2.257       .  S
In170       O179   2.231       .  S
In170       O182   2.218       .  S
C171        O177   1.265       .  A
C171        O179   1.261       .  A
C171        C209   1.484       .  S
O172        C180   1.262       .  A
O173        C180   1.266       .  A
C174        O181   1.262       .  A
C174        O175   1.265       .  A
C174        C368   1.482       .  S
C176        O178   1.266       .  A
C176        O182   1.260       .  A
C176        C221   1.481       .  S
C180        C320   1.484       .  S
In183       O185   2.227       .  S
In183       O186   2.268       .  S
In183       O194   2.234       .  S
In183       O188   2.244       .  S
In183       O190   2.264       .  S
In183       O191   2.253       .  S
In183       O192   2.219       .  S
In183       O195   2.236       .  S
C184        O190   1.264       .  A
C184        O192   1.260       .  A
C184        C233   1.481       .  S
O185        C193   1.259       .  A
O186        C193   1.265       .  A
C187        O194   1.263       .  A
C187        O188   1.265       .  A
C187        C269   1.482       .  S
C189        O191   1.266       .  A
C189        O195   1.262       .  A
C189        C392   1.485       .  S
C193        C212   1.484       .  S
In196       O198   2.227       .  S
In196       O199   2.252       .  S
In196       O207   2.231       .  S
In196       O201   2.248       .  S
In196       O203   2.271       .  S
In196       O204   2.254       .  S
In196       O205   2.219       .  S
In196       O208   2.233       .  S
C197        O203   1.265       .  A
C197        O205   1.260       .  A
C197        C248   1.485       .  S
O198        C206   1.261       .  A
O199        C206   1.265       .  A
C200        O207   1.261       .  A
C200        O201   1.265       .  A
C200        C353   1.480       .  S
C202        O204   1.264       .  A
C202        O208   1.261       .  A
C202        C260   1.484       .  S
C206        C224   1.481       .  S
C209        C210   1.404       .  A
C209        C214   1.411       .  A
C210        C211   1.398       .  A
C210        H215   1.084       .  S
C211        C212   1.411       .  A
C211        O216   1.372       .  S
C212        C213   1.405       .  A
C213        C214   1.406       .  A
C213        H217   1.083       .  S
C214        O218   1.371       .  S
O216        H220   0.991       .  S
O218        H219   0.991       .  S
C221        C222   1.405       .  A
C221        C226   1.409       .  A
C222        C223   1.397   1_455  A
C222        H227   1.084       .  S
C223        C224   1.411       .  A
C223        O228   1.372       .  S
C224        C225   1.406       .  A
C225        C226   1.402   1_655  A
C225        H229   1.083       .  S
C226        O230   1.371       .  S
O228        H232   0.991       .  S
O230        H231   0.991       .  S
C233        C234   1.403       .  A
C233        C238   1.411       .  A
C234        C235   1.394   1_455  A
C234        H239   1.084       .  S
C235        C236   1.410       .  A
C235        O240   1.372       .  S
C236        C237   1.406       .  A
C237        C238   1.405   1_655  A
C237        H241   1.083       .  S
C238        O242   1.371       .  S
O240        H244   0.992       .  S
O242        H243   0.991       .  S
C245        C246   1.407       .  A
C245        C250   1.411       .  A
C246        C247   1.408       .  A
C246        H251   1.083       .  S
C247        C248   1.412       .  A
C247        O252   1.371       .  S
C248        C249   1.403       .  A
C249        C250   1.394       .  A
C249        H253   1.084       .  S
C250        O254   1.372       .  S
O252        H256   0.990       .  S
O254        H255   0.993       .  S
C257        C258   1.403       .  A
C257        C262   1.412       .  A
C258        C259   1.399       .  A
C258        H263   1.083       .  S
C259        C260   1.411       .  A
C259        O264   1.371       .  S
C260        C261   1.405       .  A
C261        C262   1.403       .  A
C261        H265   1.083       .  S
C262        O266   1.372       .  S
O264        H268   0.992       .  S
O266        H267   0.991       .  S
C269        C270   1.405       .  A
C269        C274   1.410       .  A
C270        C271   1.400       .  A
C270        H275   1.083       .  S
C271        C272   1.409       .  A
C271        O276   1.371       .  S
C272        C273   1.406       .  A
C273        C274   1.401       .  A
C273        H277   1.084       .  S
C274        O278   1.371       .  S
O276        H280   0.992       .  S
O278        H279   0.991       .  S
C281        C282   1.402       .  A
C281        C286   1.411       .  A
C282        C283   1.395       .  A
C282        H287   1.084       .  S
C283        C284   1.411       .  A
C283        O288   1.371       .  S
C284        C285   1.405       .  A
C285        C286   1.401       .  A
C285        H289   1.083       .  S
C286        O290   1.372       .  S
O288        H292   0.992       .  S
O290        H291   0.991       .  S
C293        C294   1.407       .  A
C293        C298   1.411       .  A
C294        C295   1.405       .  A
C294        H299   1.083       .  S
C295        C296   1.411       .  A
C295        O300   1.371       .  S
C296        C297   1.404       .  A
C297        C298   1.394       .  A
C297        H301   1.084       .  S
C298        O302   1.372       .  S
O300        H304   0.990       .  S
O302        H303   0.994       .  S
C305        C306   1.406       .  A
C305        C310   1.411       .  A
C306        C307   1.405       .  A
C306        H311   1.083       .  S
C307        C308   1.411       .  A
C307        O312   1.371       .  S
C308        C309   1.403       .  A
C309        C310   1.394       .  A
C309        H313   1.084       .  S
C310        O314   1.372       .  S
O312        H316   0.992       .  S
O314        H315   0.991       .  S
C317        C318   1.406       .  A
C317        C322   1.409       .  A
C318        C319   1.402       .  A
C318        H323   1.084       .  S
C319        C320   1.410       .  A
C319        O324   1.371       .  S
C320        C321   1.406       .  A
C321        C322   1.400       .  A
C321        H325   1.083       .  S
C322        O326   1.372       .  S
O324        H328   0.992       .  S
O326        H327   0.992       .  S
C329        C330   1.404       .  A
C329        C334   1.411       .  A
C330        C331   1.396       .  A
C330        H335   1.084       .  S
C331        C332   1.411       .  A
C331        O336   1.372       .  S
C332        C333   1.407       .  A
C333        C334   1.406       .  A
C333        H337   1.083       .  S
C334        O338   1.371       .  S
O336        H340   0.991       .  S
O338        H339   0.991       .  S
C341        C342   1.404       .  A
C341        C346   1.412       .  A
C342        C343   1.397       .  A
C342        H347   1.083       .  S
C343        C344   1.411       .  A
C343        O348   1.372       .  S
C344        C345   1.406       .  A
C345        C346   1.406       .  A
C345        H349   1.083       .  S
C346        O350   1.371       .  S
O348        H352   0.992       .  S
O350        H351   0.993       .  S
C353        C354   1.403   1_554  A
C353        C358   1.411   1_565  A
C354        C947   1.400   1_565  A
C354        H359   1.084       .  S
C355        C356   1.412       .  A
C355        C946   1.400   1_545  A
C355        O360   1.372   1_545  S
C356        C949   1.404       .  A
C357        C358   1.400       .  A
C357        C948   1.404   1_554  A
C357        H361   1.083       .  S
C358        O362   1.372       .  S
O360        H364   0.991       .  S
O362        H363   0.992       .  S
C365        C366   1.405       .  A
C365        C962   1.409       .  A
C366        C959   1.400   1_545  A
C366        H371   1.084       .  S
C367        C368   1.410   1_556  A
C367        C958   1.400   1_565  A
C367        O372   1.371       .  S
C368        C369   1.406   1_565  A
C369        C370   1.402       .  A
C369        H373   1.083       .  S
C370        C957   1.409   1_554  A
C370        O374   1.372       .  S
O372        H968   0.993       .  S
O374        H375   0.992       .  S
H376        O964   0.993       .  S
C377        C378   1.403       .  A
C377        C382   1.409       .  A
C378        C379   1.396   1_655  A
C378        H383   1.084       .  S
C379        C380   1.411       .  A
C379        O384   1.372       .  S
C380        C381   1.405       .  A
C381        C382   1.402   1_455  A
C381        H385   1.083       .  S
C382        O386   1.371       .  S
O384        H388   0.992       .  S
O386        H387   0.993       .  S
C389        C394   1.412       .  A
C389        C982   1.404       .  A
C390        C391   1.401       .  A
C390        C981   1.404   1_554  A
C390        H987   1.083       .  S
C391        C392   1.412       .  A
C391        O396   1.371       .  S
C392        C393   1.404   1_554  A
C393        C986   1.402       .  A
C393        H397   1.083       .  S
C394        C985   1.402       .  A
C394        O398   1.372       .  S
H395        C982   1.083       .  S
O396        H400   0.992       .  S
O398        H399   0.991       .  S
C401        C402   1.403       .  A
C401        C406   1.411       .  A
C402        C403   1.394       .  A
C402        H407   1.084       .  S
C403        C404   1.411       .  A
C403        O408   1.372       .  S
C404        C405   1.406       .  A
C405        C406   1.405       .  A
C405        H409   1.083       .  S
C406        O410   1.371       .  S
O408        H412   0.991       .  S
O410        H411   0.992       .  S
C413        C414   1.404       .  A
C413        C418   1.412       .  A
C414       C1007   1.401       .  A
C414        H419   1.083       .  S
C415        C416   1.411       .  A
C415       C1006   1.401       .  A
C415        O420   1.372       .  S
C416        C417   1.403   1_554  A
C417       C1010   1.399       .  A
C417        H421   1.084       .  S
C418       C1009   1.399       .  A
C418        O422   1.371       .  S
O420        H424   0.992       .  S
O422        H423   0.991       .  S
C425        C426   1.403       .  A
C425        C430   1.410       .  A
C426        C427   1.396   1_655  A
C426        H431   1.084       .  S
C427        C428   1.411       .  A
C427        O432   1.372       .  S
C428        C429   1.406       .  A
C429        C430   1.404   1_455  A
C429        H433   1.083       .  S
C430        O434   1.371       .  S
O432        H436   0.991       .  S
O434        H435   0.990       .  S
C437        C438   1.405       .  A
C437        C442   1.409       .  A
C438        C439   1.405       .  A
C438        H443   1.083       .  S
C439        C440   1.410       .  A
C439        O444   1.371       .  S
C440        C441   1.402       .  A
C441        C442   1.394       .  A
C441        H445   1.084       .  S
C442        O446   1.372       .  S
O444        H448   0.994       .  S
O446        H447   0.992       .  S
C449        C450   1.406       .  A
C449        C454   1.409       .  A
C450        C451   1.400       .  A
C450        H455   1.083       .  S
C451        C452   1.410       .  A
C451        O456   1.371       .  S
C452        C453   1.405       .  A
C453        C454   1.398       .  A
C453        H457   1.083       .  S
C454        O458   1.371       .  S
O456        H460   0.992       .  S
O458        H459   0.992       .  S
C461        C462   1.405       .  A
C461        C466   1.409       .  A
C462        C463   1.398   1_545  A
C462        H467   1.084       .  S
C463        C464   1.409       .  A
C463        O468   1.372       .  S
C464        C465   1.406   1_565  A
C465        C466   1.399       .  A
C465        H469   1.083       .  S
C466        O470   1.372       .  S
O468        H472   0.992       .  S
O470        H471   0.991       .  S
C473        C474   1.404       .  A
C473        C478   1.412       .  A
C474        C475   1.401       .  A
C474        H479   1.083       .  S
C475        C476   1.411       .  A
C475        O480   1.372       .  S
C476        C477   1.403       .  A
C477        C478   1.400       .  A
C477        H481   1.084       .  S
C478        O482   1.372       .  S
O480        H484   0.993       .  S
O482        H483   0.993       .  S
C485        C486   1.405       .  A
C485        C490   1.413   1_565  A
C486        C487   1.404   1_565  A
C486        H491   1.083       .  S
C487        C488   1.412       .  A
C487        O492   1.372   1_545  S
C488        C489   1.403       .  A
C489        C490   1.400       .  A
C489        H493   1.083       .  S
C490        O494   1.371       .  S
O492        H496   0.992       .  S
O494        H495   0.991       .  S
C497        C498   1.407       .  A
C497        C502   1.412       .  A
C498        C499   1.406       .  A
C498        H503   1.083       .  S
C499        C500   1.411       .  A
C499        O504   1.371       .  S
C500        C501   1.403       .  A
C501        C502   1.393       .  A
C501        H505   1.084       .  S
C502        O506   1.372       .  S
O504        H508   0.992       .  S
O506        H507   0.992       .  S
C509        C510   1.405       .  A
C509        C514   1.409       .  A
C510        C511   1.399       .  A
C510        H515   1.084       .  S
C511        C512   1.409       .  A
C511        O516   1.372       .  S
C512        C513   1.404       .  A
C513        C514   1.396       .  A
C513        H517   1.084       .  S
C514        O518   1.371       .  S
O516        H520   0.993       .  S
O518        H519   0.991       .  S
C521        C522   1.404       .  A
C521        C526   1.414       .  A
C522        C523   1.401       .  A
C522        H527   1.083       .  S
C523        C524   1.410       .  A
C523        O528   1.371       .  S
C524        C525   1.403       .  A
C525        C526   1.401       .  A
C525        H529   1.084       .  S
C526        O530   1.371       .  S
O528        H532   0.993       .  S
O530        H531   0.992       .  S
C533        C534   1.405       .  A
C533        C538   1.411       .  A
C534        C535   1.399       .  A
C534        H539   1.084       .  S
C535        C536   1.413       .  A
C535        O540   1.372       .  S
C536        C537   1.407       .  A
C537        C538   1.407       .  A
C537        H541   1.083       .  S
C538        O542   1.371       .  S
O540        H544   0.992       .  S
O542        H543   0.992       .  S
C545        C546   1.403       .  A
C545        C550   1.412       .  A
C546        C547   1.399       .  A
C546        H551   1.083       .  S
C547        C548   1.411       .  A
C547        O552   1.372       .  S
C548        C549   1.404       .  A
C549        C550   1.401       .  A
C549        H553   1.083       .  S
C550        O554   1.372       .  S
O552        H556   0.992       .  S
O554        H555   0.992       .  S
C557        C558   1.404       .  A
C557        C562   1.412       .  A
C558        C559   1.399       .  A
C558        H563   1.083       .  S
C559        C560   1.410       .  A
C559        O564   1.372       .  S
C560        C561   1.401       .  A
C561        C562   1.396       .  A
C561        H565   1.084       .  S
C562        O566   1.371       .  S
O564        H568   0.992       .  S
O566        H567   0.991       .  S
C569        C570   1.403       .  A
C569        C574   1.411       .  A
C570        C571   1.393       .  A
C570        H575   1.084       .  S
C571        C572   1.410       .  A
C571        O576   1.372       .  S
C572        C573   1.407       .  A
C573        C574   1.405       .  A
C573        H577   1.083       .  S
C574        O578   1.371       .  S
O576        H580   0.991       .  S
O578        H579   0.993       .  S
C581        C582   1.403       .  A
C581        C586   1.411       .  A
C582        C583   1.393       .  A
C582        H587   1.084       .  S
C583        C584   1.409       .  A
C583        O588   1.372       .  S
C584        C585   1.406       .  A
C585        C586   1.405       .  A
C585        H589   1.083       .  S
C586        O590   1.371       .  S
O588        H592   0.991       .  S
O590        H591   0.993       .  S
In593       O595   2.231       .  S
In593       O596   2.240       .  S
In593       O604   2.216       .  S
In593       O598   2.244       .  S
In593       O600   2.261       .  S
In593       O601   2.265       .  S
In593       O602   2.210       .  S
In593       O605   2.216       .  S
C594        O600   1.265       .  A
C594        O602   1.260       .  A
C594       C1173   1.479       .  S
O595        C603   1.263       .  A
O596        C603   1.266       .  A
C597        O604   1.260       .  A
C597        O598   1.265       .  A
C597       C1149   1.477       .  S
C599        O601   1.265       .  A
C599        O605   1.260       .  A
C599       C1161   1.482       .  S
C603       C1137   1.482       .  S
In606       O608   2.208       .  S
In606       O609   2.257       .  S
In606       O617   2.234       .  S
In606       O611   2.251       .  S
In606       O613   2.270       .  S
In606       O614   2.232       .  S
In606       O615   2.227       .  S
In606       O618   2.227       .  S
C607        O613   1.267       .  A
C607        O615   1.260       .  A
C607       C1125   1.488       .  S
O608        C616   1.261       .  A
O609        C616   1.266       .  A
C610        O617   1.262       .  A
C610        O611   1.267       .  A
C610       C1113   1.485       .  S
C612        O614   1.264       .  A
C612        O618   1.262       .  A
C612       C1101   1.477       .  S
C616       C1164   1.482       .  S
In619       O621   2.242       .  S
In619       O622   2.250       .  S
In619       O630   2.227       .  S
In619       O624   2.247       .  S
In619       O626   2.268       .  S
In619       O627   2.268       .  S
In619       O628   2.212       .  S
In619       O631   2.232       .  S
C620        O626   1.266       .  A
C620        O628   1.259       .  A
C620       C1089   1.484       .  S
O621        C629   1.262       .  A
O622        C629   1.266       .  A
C623        O630   1.262       .  A
C623        O624   1.266       .  A
C623       C1065   1.482       .  S
C625        O627   1.266       .  A
C625        O631   1.260       .  A
C625       C1128   1.489       .  S
C629       C1080   1.485       .  S
In632       O634   2.222       .  S
In632       O635   2.259       .  S
In632       O643   2.230       .  S
In632       O637   2.241       .  S
In632       O639   2.270       .  S
In632       O640   2.249       .  S
In632       O641   2.218       .  S
In632       O644   2.225       .  S
C633        O639   1.263       .  A
C633        O641   1.259       .  A
C633       C1092   1.483       .  S
O634        C642   1.260       .  A
O635        C642   1.264       .  A
C636        O643   1.262       .  A
C636        O637   1.265       .  A
C636       C1041   1.480       .  S
C638        O640   1.264       .  A
C638        O644   1.261       .  A
C638       C1053   1.478       .  S
C642       C1176   1.480       .  S
In645       O647   2.229       .  S
In645       O648   2.247       .  S
In645       O656   2.229       .  S
In645       O650   2.248       .  S
In645       O652   2.258       .  S
In645       O653   2.259       .  S
In645       O654   2.225       .  S
In645       O657   2.220       .  S
C646        O652   1.264       .  A
C646        O654   1.259       .  A
C646       C1017   1.481       .  S
O647        C655   1.261       .  A
O648        C655   1.264       .  A
C649        O656   1.262       .  A
C649        O650   1.265       .  A
C649       C1140   1.482       .  S
C651        O653   1.264       .  A
C651        O657   1.260       .  A
C651       C1032   1.477       .  S
C655       C1005   1.481       .  S
In658       O660   2.212       .  S
In658       O661   2.263       .  S
In658       O669   2.219       .  S
In658       O663   2.243       .  S
In658       O665   2.259       .  S
In658       O666   2.249       .  S
In658       O667   2.216       .  S
In658       O670   2.233       .  S
C659        O665   1.265       .  A
C659        O667   1.260       .  A
C659       C1020   1.482       .  S
O660        C668   1.259       .  A
O661        C668   1.266       .  A
C662        O669   1.262       .  A
C662        O663   1.265       .  A
C662       C1104   1.476       .  S
C664        O666   1.265       .  A
C664        O670   1.261       .  A
C664        C981   1.484       .  S
C668        C996   1.482       .  S
In671       O673   2.229       .  S
In671       O674   2.245       .  S
In671       O682   2.227       .  S
In671       O676   2.245       .  S
In671       O678   2.265       .  S
In671       O679   2.252       .  S
In671       O680   2.217       .  S
In671       O683   2.222       .  S
C672        O678   1.265       .  A
C672        O680   1.260       .  A
C672        C993   1.482       .  S
O673        C681   1.261       .  A
O674        C681   1.265       .  A
C675        O682   1.262       .  A
C675        O676   1.265       .  A
C675        C957   1.480       .  S
C677        O679   1.265       .  A
C677        O683   1.260       .  A
C677        C972   1.480       .  S
C681       C1068   1.480       .  S
In684       O686   2.221       .  S
In684       O687   2.251       .  S
In684       O695   2.228       .  S
In684       O689   2.244       .  S
In684       O691   2.261       .  S
In684       O692   2.248       .  S
In684       O693   2.217       .  S
In684       O696   2.224       .  S
C685        O691   1.265       .  A
C685        O693   1.260       .  A
C685       C1029   1.477       .  S
O686        C694   1.260       .  A
O687        C694   1.265       .  A
C688        O695   1.262       .  A
C688        O689   1.266       .  A
C688        C948   1.481       .  S
C690        O692   1.265       .  A
C690        O696   1.262       .  A
C690       C1044   1.481       .  S
C694        C969   1.478       .  S
In697       O699   2.237       .  S
In697       O700   2.246       .  S
In697       O708   2.231       .  S
In697       O702   2.256       .  S
In697       O704   2.274       .  S
In697       O705   2.266       .  S
In697       O706   2.222       .  S
In697       O709   2.232       .  S
C698        O704   1.266       .  A
C698        O706   1.259       .  A
C698        C921   1.486       .  S
O699        C707   1.262       .  A
O700        C707   1.265       .  A
C701        O708   1.262       .  A
C701        O702   1.267       .  A
C701       C1077   1.487       .  S
C703        O705   1.265       .  A
C703        O709   1.261       .  A
C703        C933   1.486       .  S
C707        C909   1.482       .  S
In710       O712   2.236       .  S
In710       O713   2.227       .  S
In710       O721   2.221       .  S
In710       O715   2.236       .  S
In710       O717   2.260       .  S
In710       O718   2.259       .  S
In710       O719   2.218       .  S
In710       O722   2.218       .  S
C711        O717   1.265       .  A
C711        O719   1.261       .  A
C711        C900   1.482       .  S
O712        C720   1.262       .  A
O713        C720   1.264       .  A
C714        O721   1.261       .  A
C714        O715   1.265       .  A
C714       C1152   1.474       .  S
C716        O718   1.265       .  A
C716        O722   1.260       .  A
C716        C885   1.483       .  S
C720        C873   1.477       .  S
In723       O725   2.221       .  S
In723       O726   2.264       .  S
In723       O734   2.231       .  S
In723       O728   2.245       .  S
In723       O730   2.267       .  S
In723       O731   2.246       .  S
In723       O732   2.216       .  S
In723       O735   2.234       .  S
C724        O730   1.266       .  A
C724        O732   1.260       .  A
C724        C888   1.483       .  S
O725        C733   1.260       .  A
O726        C733   1.266       .  A
C727        O734   1.262       .  A
C727        O728   1.265       .  A
C727        C864   1.482       .  S
C729        O731   1.265       .  A
C729        O735   1.262       .  A
C729       C1116   1.480       .  S
C733        C924   1.485       .  S
In736       O738   2.226       .  S
In736       O739   2.264       .  S
In736       O747   2.224       .  S
In736       O741   2.240       .  S
In736       O743   2.268       .  S
In736       O744   2.243       .  S
In736       O745   2.207       .  S
In736       O748   2.236       .  S
C737        O743   1.266       .  A
C737        O745   1.259       .  A
C737        C897   1.482       .  S
O738        C746   1.260       .  A
O739        C746   1.265       .  A
C740        O747   1.262       .  A
C740        O741   1.265       .  A
C740       C1056   1.479       .  S
C742        O744   1.265       .  A
C742        O748   1.262       .  A
C742        C849   1.483       .  S
C746        C936   1.486       .  S
In749       O751   2.227       .  S
In749       O752   2.246       .  S
In749       O760   2.232       .  S
In749       O754   2.248       .  S
In749       O756   2.276       .  S
In749       O757   2.261       .  S
In749       O758   2.214       .  S
In749       O761   2.217       .  S
C750        O756   1.265       .  A
C750        O758   1.259       .  A
C750        C837   1.485       .  S
O751        C759   1.261       .  A
O752        C759   1.263       .  A
C753        O760   1.261       .  A
C753        O754   1.265       .  A
C753       C1008   1.480       .  S
C755        O757   1.265       .  A
C755        O761   1.260       .  A
C755        C828   1.482       .  S
C759        C876   1.480       .  S
In762       O764   2.227       .  S
In762       O765   2.254       .  S
In762       O773   2.238       .  S
In762       O767   2.246       .  S
In762       O769   2.261       .  S
In762       O770   2.257       .  S
In762       O771   2.231       .  S
In762       O774   2.218       .  S
C763        O769   1.265       .  A
C763        O771   1.261       .  A
C763        C801   1.484       .  S
O764        C772   1.262       .  A
O765        C772   1.266       .  A
C766        O773   1.262       .  A
C766        O767   1.265       .  A
C766        C960   1.482       .  S
C768        O770   1.266       .  A
C768        O774   1.260       .  A
C768        C813   1.481       .  S
C772        C912   1.484       .  S
In775       O777   2.227       .  S
In775       O778   2.268       .  S
In775       O786   2.234       .  S
In775       O780   2.244       .  S
In775       O782   2.264       .  S
In775       O783   2.253       .  S
In775       O784   2.219       .  S
In775       O787   2.236       .  S
C776        O782   1.264       .  A
C776        O784   1.260       .  A
C776        C825   1.481       .  S
O777        C785   1.259       .  A
O778        C785   1.265       .  A
C779        O786   1.263       .  A
C779        O780   1.265       .  A
C779        C861   1.482       .  S
C781        O783   1.266       .  A
C781        O787   1.262       .  A
C781        C984   1.485       .  S
C785        C804   1.484       .  S
In788       O790   2.227       .  S
In788       O791   2.252       .  S
In788       O799   2.231       .  S
In788       O793   2.248       .  S
In788       O795   2.271       .  S
In788       O796   2.254       .  S
In788       O797   2.219       .  S
In788       O800   2.233       .  S
C789        O795   1.265       .  A
C789        O797   1.260       .  A
C789        C840   1.485       .  S
O790        C798   1.261       .  A
O791        C798   1.265       .  A
C792        O799   1.261       .  A
C792        O793   1.265       .  A
C792        C945   1.480       .  S
C794        O796   1.264       .  A
C794        O800   1.261       .  A
C794        C852   1.484       .  S
C798        C816   1.481       .  S
C801        C802   1.404       .  A
C801        C806   1.411       .  A
C802        C803   1.398       .  A
C802        H807   1.084       .  S
C803        C804   1.411       .  A
C803        O808   1.372       .  S
C804        C805   1.405       .  A
C805        C806   1.406       .  A
C805        H809   1.083       .  S
C806        O810   1.371       .  S
O808        H812   0.991       .  S
O810        H811   0.991       .  S
C813        C814   1.405       .  A
C813        C818   1.409       .  A
C814        C815   1.397   1_455  A
C814        H819   1.084       .  S
C815        C816   1.411       .  A
C815        O820   1.372       .  S
C816        C817   1.406       .  A
C817        C818   1.402   1_655  A
C817        H821   1.083       .  S
C818        O822   1.371       .  S
O820        H824   0.991       .  S
O822        H823   0.991       .  S
C825        C826   1.403       .  A
C825        C830   1.411       .  A
C826        C827   1.394   1_455  A
C826        H831   1.084       .  S
C827        C828   1.410       .  A
C827        O832   1.372       .  S
C828        C829   1.406       .  A
C829        C830   1.405   1_655  A
C829        H833   1.083       .  S
C830        O834   1.371       .  S
O832        H836   0.992       .  S
O834        H835   0.991       .  S
C837        C838   1.407       .  A
C837        C842   1.411       .  A
C838        C839   1.408       .  A
C838        H843   1.083       .  S
C839        C840   1.412       .  A
C839        O844   1.371       .  S
C840        C841   1.403       .  A
C841        C842   1.394       .  A
C841        H845   1.084       .  S
C842        O846   1.372       .  S
O844        H848   0.990       .  S
O846        H847   0.994       .  S
C849        C850   1.403       .  A
C849        C854   1.412       .  A
C850        C851   1.399       .  A
C850        H855   1.083       .  S
C851        C852   1.411       .  A
C851        O856   1.371       .  S
C852        C853   1.405       .  A
C853        C854   1.403       .  A
C853        H857   1.083       .  S
C854        O858   1.372       .  S
O856        H860   0.992       .  S
O858        H859   0.991       .  S
C861        C862   1.405       .  A
C861        C866   1.410       .  A
C862        C863   1.400       .  A
C862        H867   1.083       .  S
C863        C864   1.409       .  A
C863        O868   1.371       .  S
C864        C865   1.406       .  A
C865        C866   1.401       .  A
C865        H869   1.084       .  S
C866        O870   1.371       .  S
O868        H872   0.992       .  S
O870        H871   0.991       .  S
C873        C874   1.402       .  A
C873        C878   1.411       .  A
C874        C875   1.395       .  A
C874        H879   1.084       .  S
C875        C876   1.411       .  A
C875        O880   1.371       .  S
C876        C877   1.405       .  A
C877        C878   1.401       .  A
C877        H881   1.083       .  S
C878        O882   1.372       .  S
O880        H884   0.992       .  S
O882        H883   0.991       .  S
C885        C886   1.407       .  A
C885        C890   1.411       .  A
C886        C887   1.405       .  A
C886        H891   1.083       .  S
C887        C888   1.411       .  A
C887        O892   1.371       .  S
C888        C889   1.404       .  A
C889        C890   1.394       .  A
C889        H893   1.084       .  S
C890        O894   1.372       .  S
O892        H896   0.990       .  S
O894        H895   0.994       .  S
C897        C898   1.406       .  A
C897        C902   1.411       .  A
C898        C899   1.405       .  A
C898        H903   1.083       .  S
C899        C900   1.411       .  A
C899        O904   1.371       .  S
C900        C901   1.403       .  A
C901        C902   1.394       .  A
C901        H905   1.084       .  S
C902        O906   1.372       .  S
O904        H908   0.992       .  S
O906        H907   0.991       .  S
C909        C910   1.406       .  A
C909        C914   1.409       .  A
C910        C911   1.402       .  A
C910        H915   1.084       .  S
C911        C912   1.410       .  A
C911        O916   1.371       .  S
C912        C913   1.406       .  A
C913        C914   1.400       .  A
C913        H917   1.083       .  S
C914        O918   1.372       .  S
O916        H920   0.992       .  S
O918        H919   0.993       .  S
C921        C922   1.404       .  A
C921        C926   1.411       .  A
C922        C923   1.396       .  A
C922        H927   1.084       .  S
C923        C924   1.411       .  A
C923        O928   1.372       .  S
C924        C925   1.407       .  A
C925        C926   1.406       .  A
C925        H929   1.083       .  S
C926        O930   1.371       .  S
O928        H932   0.991       .  S
O930        H931   0.991       .  S
C933        C934   1.404       .  A
C933        C938   1.412       .  A
C934        C935   1.397       .  A
C934        H939   1.083       .  S
C935        C936   1.411       .  A
C935        O940   1.372       .  S
C936        C937   1.406       .  A
C937        C938   1.406       .  A
C937        H941   1.083       .  S
C938        O942   1.371       .  S
O940        H944   0.992       .  S
O942        H943   0.992       .  S
C945        C946   1.403       .  A
C945        C950   1.411   1_565  A
C946        H951   1.084       .  S
C947        C948   1.412       .  A
C947        O952   1.372   1_545  S
C949        C950   1.400       .  A
C949        H953   1.083       .  S
C950        O954   1.372       .  S
O952        H956   0.991       .  S
O954        H955   0.992       .  S
C957        C958   1.405       .  A
C958        H963   1.084       .  S
C959        C960   1.410       .  A
C959        O964   1.371       .  S
C960        C961   1.406   1_565  A
C961        C962   1.402       .  A
C961        H965   1.083       .  S
C962        O966   1.372       .  S
O966        H967   0.992       .  S
C969        C970   1.403       .  A
C969        C974   1.409       .  A
C970        C971   1.396   1_655  A
C970        H975   1.084       .  S
C971        C972   1.411       .  A
C971        O976   1.372       .  S
C972        C973   1.405       .  A
C973        C974   1.402   1_455  A
C973        H977   1.083       .  S
C974        O978   1.371       .  S
O976        H980   0.992       .  S
O978        H979   0.993       .  S
C981        C986   1.412       .  A
C982        C983   1.401       .  A
C983        C984   1.412       .  A
C983        O988   1.371       .  S
C984        C985   1.404       .  A
C985        H989   1.083       .  S
C986        O990   1.372       .  S
O988        H992   0.992       .  S
O990        H991   0.991       .  S
C993        C994   1.403       .  A
C993        C998   1.411       .  A
C994        C995   1.394       .  A
C994        H999   1.084       .  S
C995        C996   1.411       .  A
C995       O1000   1.372       .  S
C996        C997   1.406       .  A
C997        C998   1.405       .  A
C997       H1001   1.083       .  S
C998       O1002   1.371       .  S
O1000      H1004   0.991       .  S
O1002      H1003   0.992       .  S
C1005      C1006   1.404   1_556  A
C1005      C1010   1.412       .  A
C1006      H1011   1.083       .  S
C1007      C1008   1.411       .  A
C1007      O1012   1.372       .  S
C1008      C1009   1.403       .  A
C1009      H1013   1.084       .  S
C1010      O1014   1.371       .  S
O1012      H1016   0.992       .  S
O1014      H1015   0.991       .  S
C1017      C1018   1.404       .  A
C1017      C1022   1.410       .  A
C1018      C1019   1.396   1_655  A
C1018      H1023   1.084       .  S
C1019      C1020   1.411       .  A
C1019      O1024   1.372       .  S
C1020      C1021   1.406       .  A
C1021      C1022   1.404   1_455  A
C1021      H1025   1.083       .  S
C1022      O1026   1.371       .  S
O1024      H1028   0.991       .  S
O1026      H1027   0.990       .  S
C1029      C1030   1.405       .  A
C1029      C1034   1.409       .  A
C1030      C1031   1.405       .  A
C1030      H1035   1.083       .  S
C1031      C1032   1.410       .  A
C1031      O1036   1.371       .  S
C1032      C1033   1.402       .  A
C1033      C1034   1.394       .  A
C1033      H1037   1.084       .  S
C1034      O1038   1.372       .  S
O1036      H1040   0.994       .  S
O1038      H1039   0.992       .  S
C1041      C1042   1.406       .  A
C1041      C1046   1.409       .  A
C1042      C1043   1.400       .  A
C1042      H1047   1.083       .  S
C1043      C1044   1.410       .  A
C1043      O1048   1.371       .  S
C1044      C1045   1.405       .  A
C1045      C1046   1.398       .  A
C1045      H1049   1.083       .  S
C1046      O1050   1.371       .  S
O1048      H1052   0.992       .  S
O1050      H1051   0.992       .  S
C1053      C1054   1.405       .  A
C1053      C1058   1.409       .  A
C1054      C1055   1.398   1_545  A
C1054      H1059   1.084       .  S
C1055      C1056   1.409       .  A
C1055      O1060   1.372       .  S
C1056      C1057   1.406   1_565  A
C1057      C1058   1.399       .  A
C1057      H1061   1.084       .  S
C1058      O1062   1.372       .  S
O1060      H1064   0.992       .  S
O1062      H1063   0.991       .  S
C1065      C1066   1.404       .  A
C1065      C1070   1.412       .  A
C1066      C1067   1.401       .  A
C1066      H1071   1.083       .  S
C1067      C1068   1.411       .  A
C1067      O1072   1.372       .  S
C1068      C1069   1.403       .  A
C1069      C1070   1.400       .  A
C1069      H1073   1.084       .  S
C1070      O1074   1.372       .  S
O1072      H1076   0.993       .  S
O1074      H1075   0.993       .  S
C1077      C1078   1.405       .  A
C1077      C1082   1.413   1_565  A
C1078      C1079   1.404   1_565  A
C1078      H1083   1.083       .  S
C1079      C1080   1.412       .  A
C1079      O1084   1.372   1_545  S
C1080      C1081   1.403       .  A
C1081      C1082   1.400       .  A
C1081      H1085   1.083       .  S
C1082      O1086   1.371       .  S
O1084      H1088   0.992       .  S
O1086      H1087   0.991       .  S
C1089      C1090   1.407       .  A
C1089      C1094   1.412       .  A
C1090      C1091   1.406       .  A
C1090      H1095   1.083       .  S
C1091      C1092   1.411       .  A
C1091      O1096   1.371       .  S
C1092      C1093   1.403       .  A
C1093      C1094   1.393       .  A
C1093      H1097   1.084       .  S
C1094      O1098   1.372       .  S
O1096      H1100   0.992       .  S
O1098      H1099   0.992       .  S
C1101      C1102   1.405       .  A
C1101      C1106   1.409       .  A
C1102      C1103   1.399       .  A
C1102      H1107   1.084       .  S
C1103      C1104   1.409       .  A
C1103      O1108   1.372       .  S
C1104      C1105   1.404       .  A
C1105      C1106   1.396       .  A
C1105      H1109   1.084       .  S
C1106      O1110   1.371       .  S
O1108      H1112   0.993       .  S
O1110      H1111   0.991       .  S
C1113      C1114   1.404       .  A
C1113      C1118   1.414       .  A
C1114      C1115   1.401       .  A
C1114      H1119   1.083       .  S
C1115      C1116   1.410       .  A
C1115      O1120   1.371       .  S
C1116      C1117   1.403       .  A
C1117      C1118   1.401       .  A
C1117      H1121   1.084       .  S
C1118      O1122   1.371       .  S
O1120      H1124   0.993       .  S
O1122      H1123   0.992       .  S
C1125      C1126   1.405       .  A
C1125      C1130   1.411       .  A
C1126      C1127   1.399       .  A
C1126      H1131   1.084       .  S
C1127      C1128   1.413       .  A
C1127      O1132   1.372       .  S
C1128      C1129   1.407       .  A
C1129      C1130   1.407       .  A
C1129      H1133   1.083       .  S
C1130      O1134   1.371       .  S
O1132      H1136   0.992       .  S
O1134      H1135   0.992       .  S
C1137      C1138   1.403       .  A
C1137      C1142   1.412       .  A
C1138      C1139   1.399       .  A
C1138      H1143   1.083       .  S
C1139      C1140   1.411       .  A
C1139      O1144   1.372       .  S
C1140      C1141   1.404       .  A
C1141      C1142   1.401       .  A
C1141      H1145   1.083       .  S
C1142      O1146   1.372       .  S
O1144      H1148   0.992       .  S
O1146      H1147   0.992       .  S
C1149      C1150   1.404       .  A
C1149      C1154   1.412       .  A
C1150      C1151   1.399       .  A
C1150      H1155   1.083       .  S
C1151      C1152   1.410       .  A
C1151      O1156   1.372       .  S
C1152      C1153   1.401       .  A
C1153      C1154   1.396       .  A
C1153      H1157   1.084       .  S
C1154      O1158   1.371       .  S
O1156      H1160   0.992       .  S
O1158      H1159   0.991       .  S
C1161      C1162   1.403       .  A
C1161      C1166   1.411       .  A
C1162      C1163   1.393       .  A
C1162      H1167   1.084       .  S
C1163      C1164   1.410       .  A
C1163      O1168   1.372       .  S
C1164      C1165   1.407       .  A
C1165      C1166   1.405       .  A
C1165      H1169   1.083       .  S
C1166      O1170   1.371       .  S
O1168      H1172   0.991       .  S
O1170      H1171   0.993       .  S
C1173      C1174   1.403       .  A
C1173      C1178   1.411       .  A
C1174      C1175   1.393       .  A
C1174      H1179   1.084       .  S
C1175      C1176   1.409       .  A
C1175      O1180   1.372       .  S
C1176      C1177   1.406       .  A
C1177      C1178   1.405       .  A
C1177      H1181   1.083       .  S
C1178      O1182   1.371       .  S
O1180      H1184   0.991       .  S
O1182      H1183   0.993       .  S
