geometry optimzed in LAMMPS
_audit_creation_date              2020-11-30 
_audit_creation_method            'lammps2cif' 
_symmetry_space_group_name_H-M    'P1' 
_symmetry_Int_Tables_number       1 
_symmetry_cell_setting            triclinic 
loop_ 
_symmetry_equiv_pos_as_xyz 
  x,y,z 
_cell_length_a                    35.70443642 
_cell_length_b                    35.644209770300485 
_cell_length_c                    35.6239273157483 
_cell_angle_alpha                 89.5813834906154 
_cell_angle_beta                  90.17490460013259 
_cell_angle_gamma                 89.71794401052254 
loop_ 
_atom_site_label 
_atom_site_type_symbol 
_atom_site_fract_x 
_atom_site_fract_y 
_atom_site_fract_z 
_atom_site_charge 
C1          C  0.03140683  0.98648272  0.97916313     0.01200
C2          C  0.01048981  0.01618018  0.96416163     0.01200
C3          C  0.98044912  0.03071276  0.98441868     0.01200
C4          C  0.96822526  0.01260734  0.01684922     0.01200
C5          C  0.98964926  0.98347566  0.03225375     0.01200
C6          C  0.02016808  0.96913001  0.01252275     0.01200
O7          O  0.03793471  0.16652386  0.86792938    -0.81200
O8          O  0.96183905  0.32850327  0.85836237    -0.81200
O9          O  0.94970996  0.24076822  0.80825032    -0.81300
O10         O  0.05235677  0.25066275  0.81247651    -0.81200
O11         O  0.91841875  0.27119385  0.85230380    -0.81300
O12         O  0.08185283  0.22290677  0.85986372    -0.81200
O13         O  0.99393101  0.30486313  0.81192705    -0.81200
O14         O  0.00956013  0.18521584  0.81636436    -0.81300
C15         C  0.03268416  0.16308321  0.83283797     1.08500
C16         C  0.97216521  0.33017712  0.82409749     1.08300
C17         C  0.92339973  0.26288656  0.81802955     1.08500
C18         C  0.07908714  0.23053351  0.82498312     1.08400
O19         O  0.05935339  0.25749548  0.93022521    -0.81200
O20         O  0.93530343  0.24099018  0.92645662    -0.81300
O21         O  0.97532905  0.16716022  0.88797607    -0.81200
O22         O  0.02256929  0.32891690  0.88439691    -0.81200
O23         O  0.99128491  0.30033553  0.92991011    -0.81300
O24         O  0.00321999  0.19825374  0.93397021    -0.81200
O25         O  0.08043739  0.28568040  0.87987478    -0.81200
O26         O  0.91794133  0.20970677  0.87674419    -0.81300
Co27       Co  0.04136015  0.21474767  0.89763845     1.51500
Co28       Co  0.95590681  0.28186730  0.89194066     1.51700
Co29       Co  0.96660151  0.20486461  0.84751581     1.51600
Co30       Co  0.03383094  0.28850032  0.84750123     1.51500
O31         O  0.99935741  0.24743561  0.87137553    -1.43200
C32         C  0.08237388  0.28031953  0.91502309     1.08400
C33         C  0.91371937  0.21671211  0.91143971     1.08500
C34         C  0.98259140  0.17151226  0.92269370     1.08400
C35         C  0.01298717  0.32628400  0.91871616     1.08400
O36         O  0.87055033  0.04315595  0.17088959    -0.81200
O37         O  0.86998387  0.95309868  0.32645912    -0.81200
O38         O  0.81645373  0.94675846  0.23855064    -0.81300
O39         O  0.81470808  0.04810962  0.25738418    -0.81200
O40         O  0.86278119  0.91502889  0.26600197    -0.81300
O41         O  0.86017426  0.08118565  0.23097196    -0.81200
O42         O  0.81976520  0.98440805  0.30881793    -0.81200
O43         O  0.82069431  0.01128260  0.18714869    -0.81300
C44         C  0.83599849  0.03614481  0.16628437     1.08500
C45         C  0.83528178  0.96021188  0.33048386     1.08300
C46         C  0.82816438  0.91912674  0.25838632     1.08500
C47         C  0.82562940  0.07633545  0.23829561     1.08400
O48         O  0.93248881  0.06164498  0.26315171    -0.81200
O49         O  0.93469221  0.93577292  0.23588948    -0.81300
O50         O  0.89339152  0.98159573  0.16709952    -0.81200
O51         O  0.89090116  0.01510350  0.33094697    -0.81200
O52         O  0.93784632  0.98885626  0.29968607    -0.81300
O53         O  0.93855027  0.00900800  0.19992587    -0.81200
O54         O  0.88147892  0.07674588  0.29357075    -0.81200
O55         O  0.88470172  0.91989397  0.20396210    -0.81300
Co56       Co  0.90031560  0.04400009  0.21944610     1.51500
Co57       Co  0.90117374  0.95298370  0.27882361     1.51700
Co58       Co  0.85393827  0.96812537  0.20377195     1.51600
Co59       Co  0.85211957  0.02786926  0.29305645     1.51500
O60         O  0.87697697  0.99820048  0.24876998    -1.43200
C61         C  0.91604017  0.08245066  0.28726200     1.08400
C62         C  0.91924119  0.91472394  0.21127958     1.08500
C63         C  0.92785037  0.98897147  0.17239564     1.08400
C64         C  0.92572359  0.00893152  0.32665161     1.08400
C65         C  0.96365674  0.99407027  0.48326140     0.01200
C66         C  0.98541741  0.02258791  0.46756806     0.01200
C67         C  0.01955541  0.03203039  0.48398864     0.01200
C68         C  0.03525391  0.00894471  0.51165256     0.01200
C69         C  0.01396328  0.97963122  0.52676182     0.01200
C70         C  0.97888740  0.97127649  0.51141636     0.01200
O71         O  0.03123399  0.83459432  0.63705015    -0.81200
O72         O  0.96827312  0.66924127  0.63709278    -0.81200
O73         O  0.94333488  0.75105396  0.68072781    -0.81300
O74         O  0.05410515  0.75252396  0.68263865    -0.81200
O75         O  0.91786982  0.72182831  0.63319536    -0.81300
O76         O  0.08136190  0.78196611  0.63601860    -0.81200
O77         O  0.99929080  0.69498588  0.68359264    -0.81200
O78         O  0.99900216  0.80894603  0.68296284    -0.81300
C79         C  0.02202840  0.83393531  0.67174628     1.08500
C80         C  0.97748848  0.66942541  0.67187527     1.08300
C81         C  0.91834438  0.72952664  0.66779977     1.08500
C82         C  0.07988813  0.77362610  0.67062790     1.08400
O83         O  0.05675310  0.75174264  0.56496798    -0.81200
O84         O  0.94337351  0.75191319  0.56276315    -0.81300
O85         O  0.96959038  0.83389774  0.61150776    -0.81200
O86         O  0.03044784  0.66989429  0.61336396    -0.81200
O87         O  0.00146844  0.69659423  0.56578798    -0.81300
O88         O  0.99936508  0.80698614  0.56519819    -0.81200
O89         O  0.08243590  0.72012422  0.61162714    -0.81200
O90         O  0.91708061  0.78396779  0.60827073    -0.81300
Co91       Co  0.03832005  0.79030598  0.60096439     1.51500
Co92       Co  0.96166565  0.71346975  0.60001075     1.51700
Co93       Co  0.96079216  0.79056228  0.64579758     1.51600
Co94       Co  0.03797848  0.71330336  0.64751505     1.51500
O95         O  0.99963282  0.75191937  0.62362342    -1.43200
C96         C  0.08203807  0.72929968  0.57684339     1.08400
C97         C  0.91772824  0.77434910  0.57364601     1.08500
C98         C  0.97771555  0.83247271  0.57698220     1.08400
C99         C  0.02241743  0.67079430  0.57870377     1.08400
O100        O  0.16960092  0.86804636  0.03901240    -0.81200
O101        O  0.33052417  0.86205658  0.95912025    -0.81200
O102        O  0.24341577  0.80859408  0.95231782    -0.81300
O103        O  0.25767742  0.81814138  0.05435682    -0.81200
O104        O  0.27147560  0.85209201  0.91786864    -0.81300
O105        O  0.22799810  0.86483938  0.08185263    -0.81200
O106        O  0.30969207  0.81704155  0.99520481    -0.81200
O107        O  0.18974815  0.81653015  0.01257012    -0.81300
C108        C  0.16744470  0.83276750  0.03523681     1.08500
C109        C  0.33335708  0.82821796  0.97110007     1.08300
C110        C  0.26398300  0.81790263  0.92471363     1.08500
C111        C  0.23692775  0.83025057  0.08033523     1.08400
O112        O  0.25708237  0.93578342  0.05242106    -0.81200
O113        O  0.23933060  0.92568484  0.93206108    -0.81300
O114        O  0.16682247  0.88585381  0.97509968    -0.81200
O115        O  0.33099946  0.89209330  0.01852568    -0.81200
O116        O  0.29926545  0.93426290  0.98552895    -0.81300
O117        O  0.19717797  0.93380940  0.99961128    -0.81200
O118        O  0.28909241  0.89009481  0.07826812    -0.81200
O119        O  0.20902726  0.87454761  0.91757074    -0.81300
Co120      Co  0.21632140  0.90006599  0.03909114     1.51500
Co121      Co  0.28195494  0.89365386  0.95291360     1.51700
Co122      Co  0.20653605  0.84691739  0.96772508     1.51600
Co123      Co  0.29279892  0.85433766  0.03334532     1.51500
O124        O  0.24934993  0.87373786  0.99814707    -1.43200
C125        C  0.27944928  0.92459915  0.07796070     1.08400
C126        C  0.21482589  0.90930777  0.91183481     1.08500
C127        C  0.17014473  0.92096991  0.98046102     1.08400
C128        C  0.32588506  0.92578691  0.00769983     1.08400
O129        O  0.99946189  0.80150641  0.18257754    -0.81200
O130        O  0.00912115  0.68164730  0.17649942    -0.81200
O131        O  0.92082854  0.77038346  0.13819287    -0.81300
O132        O  0.08465199  0.71832620  0.13177515    -0.81200
O133        O  0.95043929  0.73793720  0.18215178    -0.81300
O134        O  0.05632840  0.74533698  0.17933865    -0.81200
O135        O  0.03831732  0.66304637  0.12593416    -0.81200
O136        O  0.96645204  0.82725028  0.13730237    -0.81300
C137        C  0.97697088  0.82726135  0.17165573     1.08500
C138        C  0.03330994  0.66008799  0.16110183     1.08300
C139        C  0.92419451  0.76003927  0.17221151     1.08500
C140        C  0.08292947  0.72562401  0.16665512     1.08400
O141        O  0.08361456  0.78125784  0.10970154    -0.81200
O142        O  0.91969346  0.70984317  0.11016043    -0.81300
O143        O  0.99712883  0.80209304  0.06479485    -0.81200
O144        O  0.00365152  0.69596271  0.05899886    -0.81200
O145        O  0.97579174  0.66415852  0.10414002    -0.81300
O146        O  0.02786180  0.82823464  0.11126835    -0.81200
O147        O  0.05785540  0.75295757  0.06196133    -0.81200
O148        O  0.94207017  0.74447175  0.06440869    -0.81300
Co149      Co  0.03839420  0.78499736  0.14539780     1.51500
Co150      Co  0.96713095  0.70249844  0.14330212     1.51700
Co151      Co  0.96063263  0.78256517  0.10122355     1.51600
Co152      Co  0.04221954  0.71105056  0.09526544     1.51500
O153        O  0.00198809  0.74523679  0.12151888    -1.43200
C154        C  0.08352017  0.77377212  0.07466140     1.08400
C155        C  0.91768533  0.72111551  0.07593387     1.08500
C156        C  0.01852961  0.82756427  0.07691735     1.08400
C157        C  0.98311931  0.66906183  0.06962335     1.08400
C158        C  0.23675564  0.71997986  0.27232019     0.01200
C159        C  0.21987858  0.73015210  0.23819001     0.01200
C160        C  0.23355076  0.76092955  0.21798043     0.01200
C161        C  0.26350309  0.78162291  0.23211760     0.01200
C162        C  0.28039589  0.77103800  0.26591574     0.01200
C163        C  0.26514629  0.74209199  0.28736173     0.01200
O164        O  0.18552735  0.68306414  0.51401578    -0.81200
O165        O  0.30654237  0.68524315  0.50064805    -0.81200
O166        O  0.22254657  0.63588543  0.58485300    -0.81300
O167        O  0.27267625  0.65088138  0.42319047    -0.81200
O168        O  0.25186005  0.68320381  0.55771058    -0.81300
O169        O  0.24126619  0.69298292  0.45636971    -0.81200
O170        O  0.33006266  0.64028831  0.46659459    -0.81200
O171        O  0.16608523  0.63079317  0.53955954    -0.81300
C172        C  0.16294136  0.66611468  0.53587709     1.08500
C173        C  0.33134912  0.67421048  0.47771983     1.08300
C174        C  0.23060754  0.67062791  0.58320973     1.08500
C175        C  0.26300069  0.68472209  0.42942308     1.08400
O176        O  0.21100465  0.62707005  0.42006541    -0.81200
O177        O  0.28483742  0.61251858  0.58416453    -0.81300
O178        O  0.19895527  0.56628281  0.50234803    -0.81200
O179        O  0.30060489  0.56779784  0.49225564    -0.81200
O180        O  0.32914941  0.61066215  0.52648571    -0.81300
O181        O  0.16725939  0.61303589  0.47589168    -0.81200
O182        O  0.24190794  0.57617607  0.43586820    -0.81200
O183        O  0.25566408  0.56581862  0.55807121    -0.81300
Co184      Co  0.20537264  0.65352755  0.47012721     1.51500
Co185      Co  0.28919019  0.64787395  0.53882832     1.51700
Co186      Co  0.21424779  0.60033217  0.54224889     1.51600
Co187      Co  0.28283796  0.60851144  0.45859304     1.51500
O188        O  0.24792365  0.62749926  0.50233666    -1.43200
C189        C  0.21791792  0.59253814  0.41455093     1.08400
C190        C  0.27676030  0.57776146  0.58405196     1.08500
C191        C  0.17219093  0.57807771  0.48193043     1.08400
C192        C  0.32590693  0.57687393  0.51569267     1.08400
C193        C  0.23920335  0.78496950  0.76841970     0.01200
C194        C  0.21828605  0.77212908  0.73792162     0.01200
C195        C  0.22926611  0.73927665  0.71969791     0.01200
C196        C  0.26048766  0.71909160  0.73262419     0.01200
C197        C  0.28128027  0.73227863  0.76296039     0.01200
C198        C  0.26852202  0.76321859  0.78278852     0.01200
O199        O  0.42041095  0.79090690  0.87530237    -0.81200
O200        O  0.58273915  0.71688752  0.89122622    -0.81200
O201        O  0.49447561  0.70277063  0.93472748    -0.81300
O202        O  0.50186897  0.81032985  0.92780373    -0.81200
O203        O  0.52612103  0.67167671  0.89187544    -0.81300
O204        O  0.47621983  0.83661817  0.87786412    -0.81200
O205        O  0.55700318  0.75162426  0.93480046    -0.81200
O206        O  0.43858322  0.76213316  0.92699172    -0.81300
C207        C  0.41696151  0.78593093  0.91055072     1.08500
C208        C  0.58203286  0.72774984  0.92536979     1.08300
C209        C  0.51556558  0.67555593  0.92561783     1.08500
C210        C  0.48218645  0.83619538  0.91303310     1.08400
O211        O  0.51009542  0.80756427  0.81010646    -0.81200
O212        O  0.50056537  0.69171640  0.81739593    -0.81300
O213        O  0.41996551  0.72743216  0.85633327    -0.81200
O214        O  0.58510781  0.77747454  0.86358704    -0.81200
O215        O  0.55936807  0.74678558  0.81698347    -0.81300
O216        O  0.45102778  0.75307627  0.80946564    -0.81200
O217        O  0.53921837  0.83397944  0.85730003    -0.81200
O218        O  0.46553673  0.67128947  0.86374821    -0.81300
Co219      Co  0.46795551  0.79290298  0.84394284     1.51500
Co220      Co  0.53879811  0.71089841  0.85409486     1.51700
Co221      Co  0.45893040  0.71930579  0.89534879     1.51600
Co222      Co  0.54164238  0.79000991  0.89564304     1.51500
O223        O  0.50178290  0.75321298  0.87238879    -1.43200
C224        C  0.53159476  0.83326851  0.82211944     1.08400
C225        C  0.47668690  0.66812699  0.82975805     1.08500
C226        C  0.42386335  0.73351512  0.82145816     1.08400
C227        C  0.58447576  0.76864320  0.82926295     1.08400
C228        C  0.72770266  0.26846246  0.72414002     0.01200
C229        C  0.75885320  0.28841522  0.73668314     0.01200
C230        C  0.78097204  0.27403150  0.76569326     0.01200
C231        C  0.76852973  0.24340584  0.78637768     0.01200
C232        C  0.73847623  0.22237563  0.77331210     0.01200
C233        C  0.71724314  0.23546182  0.74281724     0.01200
O234        O  0.88075470  0.42339160  0.79438883    -0.81200
O235        O  0.88181027  0.58110923  0.70570087    -0.81200
O236        O  0.93926059  0.49146594  0.70195610    -0.81300
O237        O  0.93907790  0.51175688  0.79922340    -0.81200
O238        O  0.89472771  0.52057433  0.66865178    -0.81300
O239        O  0.89364407  0.48379249  0.83152234    -0.81200
O240        O  0.93268424  0.56471426  0.73604171    -0.81200
O241        O  0.93188415  0.43884893  0.76455565    -0.81300
C242        C  0.91517463  0.41762739  0.78800535     1.08500
C243        C  0.91641249  0.58605408  0.71201979     1.08300
C244        C  0.92907295  0.51197636  0.67420090     1.08500
C245        C  0.92822024  0.49093657  0.82636661     1.08400
O246        O  0.82142981  0.51650930  0.81263865    -0.81200
O247        O  0.82201184  0.48846448  0.68717747    -0.81300
O248        O  0.85925202  0.42096766  0.73202449    -0.81200
O249        O  0.85984266  0.58346300  0.76767657    -0.81200
O250        O  0.81516326  0.55059712  0.73938840    -0.81300
O251        O  0.81451948  0.45423599  0.76008216    -0.81200
O252        O  0.87238574  0.54622666  0.82878519    -0.81200
O253        O  0.87299692  0.45849320  0.67143125    -0.81300
Co254      Co  0.85291230  0.47281946  0.79504794     1.51500
Co255      Co  0.85361928  0.53195313  0.70467958     1.51700
Co256      Co  0.90059112  0.45696313  0.72082025     1.51600
Co257      Co  0.90079414  0.54702947  0.77963913     1.51500
O258        O  0.87707474  0.50220715  0.75005684    -1.43200
C259        C  0.83787035  0.53984176  0.83405306     1.08400
C260        C  0.83842294  0.46454249  0.66635653     1.08500
C261        C  0.82483472  0.42651941  0.74006304     1.08400
C262        C  0.82537735  0.57767815  0.76017721     1.08400
O263        O  0.99893939  0.19242996  0.31512230    -0.81200
O264        O  0.00601636  0.30800799  0.31170295    -0.81200
O265        O  0.91931654  0.22493938  0.35827203    -0.81300
O266        O  0.08399122  0.27783350  0.35992267    -0.81200
O267        O  0.94868912  0.25263466  0.31151492    -0.81300
O268        O  0.05641796  0.24777132  0.31398522    -0.81200
O269        O  0.03655659  0.33336803  0.35845900    -0.81200
O270        O  0.96594949  0.16937133  0.36176007    -0.81300
C271        C  0.97631896  0.16766500  0.32732396     1.08500
C272        C  0.02809893  0.33324612  0.32352610     1.08300
C273        C  0.92250758  0.23189196  0.32350419     1.08500
C274        C  0.08222808  0.26911214  0.32551161     1.08400
O275        O  0.08350935  0.21606961  0.38633664    -0.81200
O276        O  0.91873372  0.28768325  0.37957816    -0.81300
O277        O  0.99688630  0.19907612  0.43319584    -0.81200
O278        O  0.00285169  0.30593329  0.42932490    -0.81200
O279        O  0.97433507  0.33399481  0.38195713    -0.81300
O280        O  0.02728289  0.17030699  0.38789943    -0.81200
O281        O  0.05925257  0.24904854  0.43192566    -0.81200
O282        O  0.93896940  0.25755247  0.42965110    -0.81300
Co283      Co  0.03802402  0.21074535  0.35094649     1.51500
Co284      Co  0.96547076  0.29158582  0.34668557     1.51700
Co285      Co  0.95955362  0.21618421  0.39563683     1.51600
Co286      Co  0.04158446  0.28816270  0.39473142     1.51500
O287        O  0.00109313  0.25162568  0.37224350    -1.43200
C288        C  0.08403663  0.22577330  0.42082817     1.08400
C289        C  0.91632830  0.28155737  0.41480111     1.08500
C290        C  0.01861782  0.17305079  0.42227732     1.08400
C291        C  0.98207814  0.33202855  0.41674155     1.08400
C292        C  0.26440932  0.21600977  0.27213142     0.01200
C293        C  0.23295058  0.23673671  0.28299240     0.01200
C294        C  0.22208883  0.26870803  0.26272728     0.01200
C295        C  0.24434695  0.28137821  0.23310404     0.01200
C296        C  0.27612999  0.26089060  0.22284112     0.01200
C297        C  0.28786896  0.23033362  0.24444319     0.01200
O298        O  0.19258188  0.30559185  0.99637270    -0.81200
O299        O  0.30736912  0.30697342  0.00944173    -0.81200
O300        O  0.22530550  0.34942554  0.91969662    -0.81300
O301        O  0.27300832  0.35063777  0.08543353    -0.81200
O302        O  0.25502792  0.30375837  0.94971352    -0.81300
O303        O  0.24565760  0.30391720  0.05610207    -0.81200
O304        O  0.32975105  0.35459193  0.04072561    -0.81200
O305        O  0.16857659  0.35268038  0.96440795    -0.81300
C306        C  0.16759430  0.31801717  0.97403609     1.08500
C307        C  0.33159951  0.31991947  0.03184487     1.08300
C308        C  0.23430331  0.31504426  0.92285935     1.08500
C309        C  0.26677542  0.31584066  0.08208399     1.08400
O310        O  0.21068787  0.37275430  0.08379592    -0.81200
O311        O  0.28733339  0.37258454  0.92094760    -0.81300
O312        O  0.19653253  0.42345971  0.99616003    -0.81200
O313        O  0.29990605  0.42474273  0.00791340    -0.81200
O314        O  0.33074949  0.37953516  0.97896359    -0.81300
O315        O  0.16747565  0.37734853  0.02575877    -0.81200
O316        O  0.24092451  0.42225881  0.06366702    -0.81200
O317        O  0.25606017  0.42169420  0.94023758    -0.81300
Co318      Co  0.20811684  0.34022589  0.03707496     1.51500
Co319      Co  0.29113318  0.34106325  0.96831176     1.51700
Co320      Co  0.21486623  0.38684391  0.95937136     1.51600
Co321      Co  0.28264819  0.38790458  0.04512903     1.51500
O322        O  0.24915345  0.36430042  0.00243942    -1.43200
C323        C  0.21693721  0.40777815  0.08606820     1.08400
C324        C  0.28067769  0.40746402  0.91833626     1.08500
C325        C  0.17020206  0.41192885  0.01712323     1.08400
C326        C  0.32693883  0.41401693  0.98752527     1.08400
C327        C  0.26441365  0.24112872  0.71064339     0.01200
C328        C  0.23501622  0.21988093  0.72542858     0.01200
C329        C  0.21731551  0.23151044  0.75823973     0.01200
C330        C  0.23030602  0.26276466  0.77747075     0.01200
C331        C  0.25757587  0.28537173  0.76123537     0.01200
C332        C  0.27653034  0.27326787  0.72930268     0.01200
O333        O  0.58321187  0.28494605  0.61356611    -0.81200
O334        O  0.41843826  0.21846926  0.61027762    -0.81200
O335        O  0.50241797  0.19700878  0.56753207    -0.81300
O336        O  0.50119806  0.30745499  0.56779241    -0.81200
O337        O  0.47240653  0.16935308  0.61352294    -0.81300
O338        O  0.52891736  0.33386339  0.61562198    -0.81200
O339        O  0.44437962  0.25124811  0.56483416    -0.81200
O340        O  0.55870384  0.25280686  0.56733526    -0.81300
C341        C  0.58363219  0.27545139  0.57886709     1.08500
C342        C  0.41899488  0.22848430  0.57564582     1.08300
C343        C  0.48133225  0.17104672  0.57916964     1.08500
C344        C  0.52188512  0.33295669  0.58085377     1.08400
O345        O  0.49844171  0.30805192  0.68567411    -0.81200
O346        O  0.50071553  0.19368569  0.68528294    -0.81300
O347        O  0.58290472  0.22268152  0.63906694    -0.81200
O348        O  0.41804101  0.28031882  0.63490668    -0.81200
O349        O  0.44379254  0.25084819  0.68269865    -0.81300
O350        O  0.55419614  0.25122418  0.68499864    -0.81200
O351        O  0.46649926  0.33411858  0.63947357    -0.81200
O352        O  0.53390037  0.16888471  0.63983268    -0.81300
Co353      Co  0.53779071  0.29050709  0.64959212     1.51500
Co354      Co  0.46235851  0.21208185  0.64782737     1.51700
Co355      Co  0.54048888  0.21385921  0.60364229     1.51600
Co356      Co  0.46161785  0.28982119  0.60202233     1.51500
O357        O  0.50049764  0.25155395  0.62574390    -1.43200
C358        C  0.47574940  0.33349998  0.67437246     1.08400
C359        C  0.52405037  0.16880439  0.67437799     1.08500
C360        C  0.58053258  0.23051513  0.67360854     1.08400
C361        C  0.41842710  0.27220861  0.66950500     1.08400
O362        O  0.32064079  0.98725315  0.18610920    -0.81200
O363        O  0.32027587  0.00140119  0.30573393    -0.81200
O364        O  0.36973467  0.91538178  0.22380822    -0.81300
O365        O  0.35739726  0.07965584  0.27029531    -0.81200
O366        O  0.32264320  0.94328352  0.25227983    -0.81300
O367        O  0.31342289  0.04727164  0.24114462    -0.81200
O368        O  0.36525826  0.03612252  0.32825675    -0.81200
O369        O  0.37187917  0.95973179  0.16612785    -0.81300
C370        C  0.33666387  0.96447283  0.16363203     1.08500
C371        C  0.33136082  0.02498625  0.32989126     1.08300
C372        C  0.33508238  0.91711503  0.23193783     1.08500
C373        C  0.32312944  0.07436152  0.26211754     1.08400
O374        O  0.38068905  0.07963012  0.20841852    -0.81200
O375        O  0.39410629  0.91847158  0.28563546    -0.81300
O376        O  0.43810153  0.99775468  0.19381226    -0.81200
O377        O  0.43765575  0.00844092  0.30024941    -0.81200
O378        O  0.39411695  0.97597266  0.32970418    -0.81300
O379        O  0.38967848  0.02343425  0.16436887    -0.81200
O380        O  0.43106497  0.06290050  0.23989711    -0.81200
O381        O  0.44007562  0.94395092  0.25418154    -0.81300
Co382      Co  0.35159018  0.03095067  0.20434285     1.51500
Co383      Co  0.35778553  0.96306479  0.28924998     1.51700
Co384      Co  0.40442468  0.95832028  0.21298402     1.51600
Co385      Co  0.39798857  0.04257991  0.28125926     1.51500
O386        O  0.37808109  0.99884060  0.24689144    -1.43200
C387        C  0.41536404  0.08408627  0.21538895     1.08400
C388        C  0.42876467  0.91886954  0.27700232     1.08500
C389        C  0.42470854  0.01739025  0.16698103     1.08400
C390        C  0.42794699  0.98641869  0.32666281     1.08400
C391        C  0.48198503  0.03134257  0.51322746     0.01200
C392        C  0.51021738  0.01559041  0.53555585     0.01200
C393        C  0.52923906  0.98369396  0.52338633     0.01200
C394        C  0.51762842  0.96526428  0.49098525     0.01200
C395        C  0.49101121  0.98200618  0.46750686     0.01200
C396        C  0.47178570  0.01381040  0.47967356     0.01200
O397        O  0.43672912  0.73825167  0.43426397    -0.81200
O398        O  0.55723949  0.75065489  0.43632113    -0.81200
O399        O  0.47289320  0.66745078  0.38550258    -0.81300
O400        O  0.52342610  0.82916156  0.39971917    -0.81200
O401        O  0.50190422  0.69319400  0.43361342    -0.81300
O402        O  0.49293566  0.79627450  0.44284215    -0.81200
O403        O  0.58033379  0.78515240  0.39102013    -0.81200
O404        O  0.41663112  0.71293862  0.38218497    -0.81300
C405        C  0.41408620  0.71627903  0.41756338     1.08500
C406        C  0.58192200  0.77372781  0.42501309     1.08300
C407        C  0.48054840  0.66816882  0.42038790     1.08500
C408        C  0.51435911  0.82326160  0.43377182     1.08400
O409        O  0.46173490  0.83180829  0.37593988    -0.81200
O410        O  0.53476891  0.66909259  0.36268782    -0.81300
O411        O  0.44731680  0.75153726  0.31698736    -0.81200
O412        O  0.55159838  0.75953133  0.31856838    -0.81200
O413        O  0.57995377  0.72545818  0.36236141    -0.81300
O414        O  0.41687651  0.77677261  0.36455119    -0.81200
O415        O  0.49259580  0.81546930  0.32545925    -0.81200
O416        O  0.50504772  0.69617462  0.31599234    -0.81300
Co417      Co  0.45620251  0.78227964  0.40399570     1.51500
Co418      Co  0.53950427  0.71302238  0.39878663     1.51700
Co419      Co  0.46396358  0.71099054  0.35074356     1.51600
Co420      Co  0.53348176  0.79327666  0.35846754     1.51500
O421        O  0.49829565  0.74999037  0.37800105    -1.43200
C422        C  0.46859038  0.83680470  0.34124537     1.08400
C423        C  0.52633852  0.67002869  0.32791845     1.08500
C424        C  0.42044695  0.77117751  0.32949896     1.08400
C425        C  0.57731929  0.73665545  0.32848474     1.08400
O426        O  0.57688753  0.93998486  0.75784056    -0.81200
O427        O  0.57531129  0.06522411  0.74082837    -0.81200
O428        O  0.61893134  0.97932981  0.83026502    -0.81300
O429        O  0.61635385  0.02650765  0.66761845    -0.81200
O430        O  0.57376337  0.00901659  0.79927829    -0.81300
O431        O  0.57225124  0.99611017  0.69888072    -0.81200
O432        O  0.62419342  0.08485703  0.70987676    -0.81200
O433        O  0.62694746  0.92094505  0.78796525    -0.81300
C434        C  0.59210079  0.91774686  0.78180691     1.08500
C435        C  0.58936784  0.08751978  0.71642329     1.08300
C436        C  0.58446516  0.98795363  0.82605927     1.08500
C437        C  0.58215661  0.01716788  0.67183686     1.08400
O438        O  0.64191130  0.96506453  0.66820052    -0.81200
O439        O  0.64358299  0.04097830  0.82963699    -0.81300
O440        O  0.69446086  0.95085924  0.75406179    -0.81200
O441        O  0.69325198  0.05566514  0.74262898    -0.81200
O442        O  0.64781624  0.08553422  0.77199407    -0.81300
O443        O  0.64901687  0.92052486  0.72528643    -0.81200
O444        O  0.68951657  0.99641982  0.69033861    -0.81200
O445        O  0.69107770  0.00994322  0.80655810    -0.81300
Co446      Co  0.61013030  0.95970199  0.71582218     1.51500
Co447      Co  0.61023533  0.04596407  0.78226725     1.51700
Co448      Co  0.65739528  0.96881244  0.79071325     1.51600
Co449      Co  0.65558543  0.03736343  0.70656864     1.51500
O450        O  0.63311079  0.00296140  0.74882976    -1.43200
C451        C  0.67639965  0.97412526  0.66617280     1.08400
C452        C  0.67827168  0.03185952  0.83128636     1.08500
C453        C  0.68351643  0.92432342  0.73320959     1.08400
C454        C  0.68228233  0.08167596  0.76420260     1.08400
C455        C  0.48181825  0.02514410  0.02320225     0.01200
C456        C  0.46159581  0.99575975  0.00752973     0.01200
C457        C  0.47579719  0.97654404  0.97658830     0.01200
C458        C  0.50881137  0.98889073  0.95963881     0.01200
C459        C  0.52836249  0.01924489  0.97457956     0.01200
C460        C  0.51362288  0.03857444  0.00507981     0.01200
O461        O  0.43462318  0.25803512  0.07844908    -0.81200
O462        O  0.55293396  0.24498830  0.06527675    -0.81200
O463        O  0.47366911  0.33301877  0.11691999    -0.81300
O464        O  0.52408696  0.16957094  0.11150710    -0.81200
O465        O  0.49795997  0.30346945  0.06824074    -0.81300
O466        O  0.48936835  0.19961948  0.06950720    -0.81200
O467        O  0.58099927  0.21451974  0.11088310    -0.81200
O468        O  0.41897047  0.28807327  0.12952733    -0.81300
C469        C  0.41373881  0.28186684  0.09487617     1.08500
C470        C  0.57941013  0.22358414  0.07621811     1.08300
C471        C  0.47869666  0.33022907  0.08167108     1.08500
C472        C  0.51229946  0.17356024  0.07800910     1.08400
O473        O  0.46526605  0.16908772  0.14211324    -0.81200
O474        O  0.53775727  0.33245816  0.13271381    -0.81300
O475        O  0.45520587  0.25580696  0.19526059    -0.81200
O476        O  0.55786796  0.24632335  0.18277667    -0.81200
O477        O  0.58305758  0.27609354  0.13461502    -0.81300
O478        O  0.42152716  0.22596764  0.15262735    -0.81200
O479        O  0.50089778  0.19127692  0.18662390    -0.81200
O480        O  0.51331080  0.31158868  0.18521246    -0.81300
Co481      Co  0.45664862  0.21655678  0.11039661     1.51500
Co482      Co  0.53896494  0.28571306  0.10085822     1.51700
Co483      Co  0.46878851  0.29298995  0.15619567     1.51600
Co484      Co  0.53761398  0.20934325  0.14810203     1.51500
O485        O  0.50041730  0.25117611  0.12895775    -1.43200
C486        C  0.47716988  0.16710108  0.17586289     1.08400
C487        C  0.53467983  0.33456038  0.16809676     1.08500
C488        C  0.42808321  0.23441864  0.18666517     1.08400
C489        C  0.58267545  0.26786366  0.16943155     1.08400
O490        O  0.17286496  0.12669096  0.45459102    -0.81200
O491        O  0.33303669  0.13270653  0.53903788    -0.81200
O492        O  0.24090442  0.18071244  0.54844615    -0.81300
O493        O  0.25751648  0.18642393  0.44866484    -0.81200
O494        O  0.27253960  0.13613082  0.57865391    -0.81300
O495        O  0.23226836  0.14035639  0.41564255    -0.81200
O496        O  0.31253659  0.18304812  0.50994183    -0.81200
O497        O  0.18692863  0.17623233  0.48745873    -0.81300
C498        C  0.16652195  0.16092226  0.46234338     1.08500
C499        C  0.33522697  0.16789235  0.53355948     1.08300
C500        C  0.26258061  0.17032655  0.57495243     1.08500
C501        C  0.23737549  0.17516079  0.42146054     1.08400
O502        O  0.26727704  0.06892865  0.43390273    -0.81200
O503        O  0.24688010  0.06307904  0.55297877    -0.81300
O504        O  0.17169501  0.10104895  0.51620882    -0.81200
O505        O  0.33682315  0.11351830  0.47595256    -0.81200
O506        O  0.30791048  0.06508516  0.50173318    -0.81300
O507        O  0.20547288  0.05858531  0.48601216    -0.81200
O508        O  0.29527048  0.12108533  0.41724261    -0.81200
O509        O  0.21272465  0.10845186  0.57582749    -0.81300
Co510      Co  0.22288007  0.09897644  0.45196297     1.51500
Co511      Co  0.28677232  0.09951981  0.53895386     1.51700
Co512      Co  0.20748503  0.14185076  0.52879094     1.51600
Co513      Co  0.29598783  0.15048203  0.46616754     1.51500
O514        O  0.25324933  0.12292431  0.49642664    -1.43200
C515        C  0.29048540  0.08600931  0.41271237     1.08400
C516        C  0.22370821  0.07434181  0.57744360     1.08500
C517        C  0.17764576  0.06721549  0.50658799     1.08400
C518        C  0.33427770  0.07843016  0.48194530     1.08400
C519        C  0.76487426  0.77849767  0.26832745     0.01200
C520        C  0.73282909  0.76106022  0.28232657     0.01200
C521        C  0.71782224  0.73021630  0.26384447     0.01200
C522        C  0.73727411  0.71454717  0.23379933     0.01200
C523        C  0.76918920  0.73206720  0.21974831     0.01200
C524        C  0.78432073  0.76263026  0.23843345     0.01200
O525        O  0.61972188  0.57960005  0.29601148    -0.81200
O526        O  0.60719665  0.42099453  0.21395228    -0.81200
O527        O  0.55646843  0.51137919  0.20737860    -0.81300
O528        O  0.56251474  0.49522561  0.30764401    -0.81200
O529        O  0.59861675  0.48081626  0.17341514    -0.81300
O530        O  0.61030469  0.52103012  0.33745830    -0.81200
O531        O  0.56153187  0.44426416  0.24720345    -0.81200
O532        O  0.56742288  0.56367843  0.26813837    -0.81300
C533        C  0.58489582  0.58492694  0.29074274     1.08500
C534        C  0.57317992  0.41954989  0.22466401     1.08300
C535        C  0.56484744  0.49035648  0.17986493     1.08500
C536        C  0.57531707  0.51486485  0.33430527     1.08400
O537        O  0.68016791  0.48576958  0.31367608    -0.81200
O538        O  0.67331960  0.50943860  0.18858014    -0.81300
O539        O  0.63839784  0.58093285  0.23273827    -0.81200
O540        O  0.63458000  0.41798427  0.27410240    -0.81200
O541        O  0.67906630  0.44754841  0.24236691    -0.81300
O542        O  0.68427515  0.54751825  0.25923130    -0.81200
O543        O  0.62967161  0.45795657  0.33405998    -0.81200
O544        O  0.62325985  0.54203832  0.17397011    -0.81300
Co545      Co  0.64812741  0.53018560  0.29721427     1.51500
Co546      Co  0.63988019  0.46790408  0.20888239     1.51700
Co547      Co  0.59673764  0.54513806  0.22395195     1.51600
Co548      Co  0.59738073  0.45795281  0.28741736     1.51500
O549        O  0.62084189  0.50037065  0.25432245    -1.43200
C550        C  0.66477249  0.46242961  0.33617162     1.08400
C551        C  0.65747643  0.53454262  0.16808887     1.08500
C552        C  0.67309433  0.57522016  0.23924109     1.08400
C553        C  0.66868748  0.42106056  0.26405592     1.08400
C554        C  0.77989542  0.23033230  0.26754414     0.01200
C555        C  0.75963863  0.21607586  0.23743731     0.01200
C556        C  0.72975664  0.23654002  0.22232046     0.01200
C557        C  0.71853232  0.27001538  0.23926078     0.01200
C558        C  0.73793171  0.28340934  0.27050242     0.01200
C559        C  0.76726272  0.26232398  0.28591823     0.01200
C560        C  0.76753967  0.75908349  0.71444895     0.01200
C561        C  0.77899374  0.72624761  0.73267781     0.01200
C562        C  0.76071426  0.71475864  0.76536362     0.01200
C563        C  0.73425489  0.73803512  0.78227390     0.01200
C564        C  0.72313552  0.77118675  0.76415301     0.01200
C565        C  0.74133576  0.78266821  0.73136552     0.01200
O566        O  0.18246152  0.99645030  0.80531177    -0.81200
O567        O  0.18202305  0.01206923  0.68542600    -0.81200
O568        O  0.14605610  0.91836654  0.76867826    -0.81300
O569        O  0.13224998  0.08300043  0.72268067    -0.81200
O570        O  0.18961689  0.95204045  0.74034065    -0.81300
O571        O  0.17984455  0.05601032  0.75192772    -0.81200
O572        O  0.13055041  0.03938158  0.66519709    -0.81200
O573        O  0.13797897  0.96041321  0.82713449    -0.81300
C574        C  0.17176286  0.97206218  0.82918400     1.08500
C575        C  0.16578213  0.03493994  0.66283621     1.08300
C576        C  0.18025601  0.92476894  0.76143495     1.08500
C577        C  0.16692617  0.08194777  0.73102818     1.08400
O578        O  0.10777680  0.07900626  0.78427806    -0.81200
O579        O  0.12269230  0.91848423  0.70670514    -0.81300
O580        O  0.06505949  0.98774177  0.79803629    -0.81200
O581        O  0.06499697  0.00005907  0.69325355    -0.81200
O582        O  0.11320661  0.97566979  0.66317122    -0.81300
O583        O  0.10805905  0.02022431  0.82806962    -0.81200
O584        O  0.06234403  0.05305032  0.75265632    -0.81200
O585        O  0.07225273  0.93419453  0.73797559    -0.81300
Co586      Co  0.14455839  0.03464567  0.78832329     1.51500
Co587      Co  0.15141422  0.96787243  0.70322947     1.51700
Co588      Co  0.10518624  0.95447639  0.77963393     1.51600
Co589      Co  0.09810947  0.03975526  0.71186337     1.51500
O590        O  0.12484211  0.99911780  0.74573154    -1.43200
C591        C  0.07327505  0.07852303  0.77482224     1.08400
C592        C  0.08800788  0.91345147  0.71347630     1.08500
C593        C  0.07430016  0.00974884  0.82429939     1.08400
C594        C  0.07814744  0.98088295  0.66640999     1.08400
O595        O  0.75842856  0.43730922  0.55641641    -0.81200
O596        O  0.75009745  0.43221226  0.44265962    -0.81200
O597        O  0.83472944  0.38671736  0.52802626    -0.81300
O598        O  0.66891708  0.39403261  0.47562241    -0.81200
O599        O  0.80750974  0.43250395  0.49660863    -0.81300
O600        O  0.70098623  0.43920079  0.50228783    -0.81200
O601        O  0.71556538  0.38663839  0.42064648    -0.81200
O602        O  0.78763815  0.39009761  0.58338062    -0.81300
C603        C  0.77939475  0.42508166  0.58253140     1.08500
C604        C  0.72669814  0.42069897  0.41851468     1.08300
C605        C  0.83319036  0.42098941  0.51833734     1.08500
C606        C  0.67320997  0.42857246  0.48301040     1.08400
O607        O  0.66891721  0.37327341  0.53914997    -0.81200
O608        O  0.83340799  0.35931250  0.46704761    -0.81300
O609        O  0.75232588  0.31980794  0.55846269    -0.81200
O610        O  0.74359300  0.31497222  0.45284046    -0.81200
O611        O  0.77582509  0.35800148  0.42219063    -0.81300
O612        O  0.72504794  0.36843641  0.58498096    -0.81200
O613        O  0.68695534  0.32197408  0.51093858    -0.81200
O614        O  0.80837390  0.31480178  0.50113181    -0.81300
Co615      Co  0.71688338  0.40377585  0.54176781     1.51500
Co616      Co  0.78829504  0.39550905  0.46106409     1.51700
Co617      Co  0.79167879  0.35306331  0.53938917     1.51600
Co618      Co  0.70794667  0.35435377  0.46836545     1.51500
O619        O  0.75114127  0.37628728  0.50260477    -1.43200
C620        C  0.66534518  0.33813567  0.53455385     1.08400
C621        C  0.83335207  0.32494571  0.47757814     1.08500
C622        C  0.73196571  0.33343284  0.58409750     1.08400
C623        C  0.76569836  0.32417752  0.42652346     1.08400
C624        C  0.97185575  0.48642881  0.51931568     0.01200
C625        C  0.99302858  0.51544509  0.53453803     0.01200
C626        C  0.02351640  0.52974300  0.51482242     0.01200
C627        C  0.03576226  0.51155521  0.48247512     0.01200
C628        C  0.01577661  0.48123907  0.46811724     0.01200
C629        C  0.98391696  0.46841970  0.48679806     0.01200
O630        O  0.82923272  0.62563606  0.04124249    -0.81200
O631        O  0.66701379  0.62998419  0.96215238    -0.81200
O632        O  0.75568498  0.68063729  0.95007942    -0.81300
O633        O  0.74218500  0.67897385  0.05367286    -0.81200
O634        O  0.72553287  0.63591565  0.91976395    -0.81300
O635        O  0.77068882  0.63210482  0.08326086    -0.81200
O636        O  0.68665220  0.67858332  0.99362688    -0.81200
O637        O  0.81127116  0.67606094  0.01055783    -0.81300
C638        C  0.83299932  0.66053891  0.03490043     1.08500
C639        C  0.66457029  0.66484980  0.96891011     1.08300
C640        C  0.73510347  0.67014427  0.92296779     1.08500
C641        C  0.76291935  0.66687978  0.08016942     1.08400
O642        O  0.74010793  0.56090706  0.05862482    -0.81200
O643        O  0.75446460  0.56278899  0.94311697    -0.81300
O644        O  0.83088934  0.60404217  0.97858681    -0.81200
O645        O  0.66484980  0.60625502  0.02428332    -0.81200
O646        O  0.69425836  0.56018963  0.99547771    -0.81300
O647        O  0.80035713  0.55798796  0.00637851    -0.81200
O648        O  0.70893306  0.60835891  0.08197010    -0.81200
O649        O  0.78683099  0.61010912  0.92113825    -0.81300
Co650      Co  0.78159152  0.59468823  0.04323848     1.51500
Co651      Co  0.71380404  0.59745907  0.95922526     1.51700
Co652      Co  0.79171460  0.64263697  0.96842085     1.51600
Co653      Co  0.70502692  0.64296279  0.03514463     1.51500
O654        O  0.74803139  0.61984298  0.00148367    -1.43200
C655        C  0.71803119  0.57354367  0.08342769     1.08400
C656        C  0.77709998  0.57570736  0.91890519     1.08500
C657        C  0.82728220  0.56938544  0.98611720     1.08400
C658        C  0.66783250  0.57173105  0.01630192     1.08400
C659        C  0.50424491  0.48647448  0.03903443     0.01200
C660        C  0.52487449  0.51586039  0.02358517     0.01200
C661        C  0.51138517  0.53476866  0.99190503     0.01200
C662        C  0.48061089  0.52062496  0.97247777     0.01200
C663        C  0.46090415  0.48998333  0.98697369     0.01200
C664        C  0.47367352  0.47203332  0.01955450     0.01200
O665        O  0.80753719  0.18601858  0.99913051    -0.81200
O666        O  0.68775234  0.18443066  0.01361982    -0.81200
O667        O  0.77189344  0.14986023  0.92075714    -0.81300
O668        O  0.72505701  0.13427725  0.08424648    -0.81200
O669        O  0.74271751  0.19325569  0.95403252    -0.81300
O670        O  0.75353152  0.18226052  0.05751349    -0.81200
O671        O  0.66787422  0.13242271  0.03993965    -0.81200
O672        O  0.82994682  0.14155479  0.96350213    -0.81300
C673        C  0.83158606  0.17541026  0.97504597     1.08500
C674        C  0.66524529  0.16775995  0.03588750     1.08300
C675        C  0.76393312  0.18404080  0.92690471     1.08500
C676        C  0.73323523  0.16898979  0.08344137     1.08400
O677        O  0.78682542  0.11034633  0.08102809    -0.81200
O678        O  0.71021575  0.12706911  0.91998614    -0.81300
O679        O  0.80193741  0.06840007  0.99033303    -0.81200
O680        O  0.69652477  0.06719776  0.00072863    -0.81200
O681        O  0.66642905  0.11583116  0.97603011    -0.81300
O682        O  0.83106933  0.11162650  0.02329050    -0.81200
O683        O  0.75614149  0.06465642  0.05447671    -0.81200
O684        O  0.74150336  0.07618934  0.93585430    -0.81300
Co685      Co  0.79066463  0.14760557  0.03693904     1.51500
Co686      Co  0.70602620  0.15465335  0.96933604     1.51700
Co687      Co  0.78297829  0.10868808  0.95679846     1.51600
Co688      Co  0.71489451  0.10026683  0.04075472     1.51500
O689        O  0.74861308  0.12776510  0.00084318    -1.43200
C690        C  0.77792982  0.07570440  0.08034720     1.08400
C691        C  0.71696185  0.09242462  0.91505417     1.08500
C692        C  0.82812311  0.07788207  0.01254192     1.08400
C693        C  0.66954105  0.08062680  0.98148373     1.08400
O694        O  0.37104189  0.54465003  0.67517379    -0.81200
O695        O  0.35670877  0.45655221  0.83271694    -0.81200
O696        O  0.30906946  0.45299454  0.74087420    -0.81300
O697        O  0.31260750  0.55310604  0.75916177    -0.81200
O698        O  0.35115544  0.41825974  0.77131545    -0.81300
O699        O  0.36025630  0.58412071  0.73467502    -0.81200
O700        O  0.31137713  0.49074313  0.80909278    -0.81200
O701        O  0.31931438  0.51535776  0.68983617    -0.81300
C702        C  0.33640879  0.53902735  0.66922621     1.08500
C703        C  0.32236515  0.46707701  0.83362370     1.08300
C704        C  0.31742454  0.42501130  0.76170649     1.08500
C705        C  0.32524172  0.58038786  0.74007016     1.08400
O706        O  0.43040289  0.56097818  0.76950584    -0.81200
O707        O  0.42634988  0.43455607  0.74458403    -0.81300
O708        O  0.39168469  0.48176481  0.67315228    -0.81200
O709        O  0.38328116  0.51680854  0.83653777    -0.81200
O710        O  0.42938514  0.48716785  0.80755347    -0.81300
O711        O  0.43630399  0.50788531  0.70769902    -0.81200
O712        O  0.37940941  0.57896131  0.79824835    -0.81200
O713        O  0.37727034  0.42114433  0.71052884    -0.81300
Co714      Co  0.39889453  0.54465808  0.72504830     1.51500
Co715      Co  0.39125275  0.45368047  0.78599330     1.51700
Co716      Co  0.34960569  0.47106339  0.70809020     1.51600
Co717      Co  0.34720832  0.53176703  0.79651545     1.51500
O718        O  0.37215621  0.50024301  0.75390204    -1.43200
C719        C  0.41435717  0.58304163  0.79263428     1.08400
C720        C  0.41145498  0.41493307  0.71848155     1.08500
C721        C  0.42613205  0.48846002  0.67962395     1.08400
C722        C  0.41786029  0.50880436  0.83335868     1.08400
O723        O  0.78753890  0.89077681  0.41910878    -0.81200
O724        O  0.70878390  0.87690930  0.57951187    -0.81200
O725        O  0.69497165  0.93563897  0.49580685    -0.81300
O726        O  0.79638366  0.94016886  0.50961831    -0.81200
O727        O  0.66613774  0.88722863  0.52197000    -0.81300
O728        O  0.82944941  0.89823597  0.47782439    -0.81200
O729        O  0.73638818  0.92911124  0.56278927    -0.81200
O730        O  0.75490813  0.93700976  0.44248034    -0.81300
C731        C  0.77731523  0.92507539  0.41756013     1.08500
C732        C  0.71374910  0.91179530  0.58425397     1.08300
C733        C  0.66885617  0.92237492  0.51605149     1.08500
C734        C  0.82359724  0.93194397  0.48809581     1.08400
O735        O  0.81434242  0.82268298  0.50670589    -0.81200
O736        O  0.68926416  0.81777871  0.48628322    -0.81300
O737        O  0.72712472  0.86459967  0.41738610    -0.81200
O738        O  0.77180571  0.85697181  0.57945281    -0.81200
O739        O  0.74446254  0.81217148  0.54623311    -0.81300
O740        O  0.75901360  0.81910898  0.44613746    -0.81200
O741        O  0.82979916  0.87214057  0.53894632    -0.81200
O742        O  0.66817933  0.86873872  0.45876080    -0.81300
Co743      Co  0.79333223  0.85740145  0.46580283     1.51500
Co744      Co  0.70648969  0.84910696  0.53012814     1.51700
Co745      Co  0.71472983  0.90116891  0.45774777     1.51600
Co746      Co  0.78011287  0.89936306  0.54350483     1.51500
O747        O  0.74870665  0.87657478  0.49931135    -1.43200
C748        C  0.83533702  0.83783446  0.53144537     1.08400
C749        C  0.66618594  0.83349823  0.46362789     1.08500
C750        C  0.73710156  0.83030012  0.42003715     1.08400
C751        C  0.76467330  0.82242626  0.57377185     1.08400
O752        O  0.06983292  0.55418448  0.24693028    -0.81200
O753        O  0.07637022  0.43636652  0.25785270    -0.81200
O754        O  0.11442657  0.52338857  0.16827618    -0.81300
O755        O  0.12183829  0.47371846  0.33380249    -0.81200
O756        O  0.07076021  0.49198644  0.19850534    -0.81300
O757        O  0.07419481  0.50009386  0.30452078    -0.81200
O758        O  0.12670167  0.41765495  0.28822185    -0.81200
O759        O  0.11395188  0.58033811  0.21333986    -0.81300
C760        C  0.07961183  0.57935654  0.22351486     1.08500
C761        C  0.09171606  0.41460313  0.28217939     1.08300
C762        C  0.08052644  0.51343583  0.17173233     1.08500
C763        C  0.08693117  0.48062882  0.33141960     1.08400
O764        O  0.14366593  0.53671946  0.33158080    -0.81200
O765        O  0.14249141  0.46269059  0.16886459    -0.81300
O766        O  0.18738348  0.55599218  0.24488655    -0.81200
O767        O  0.19384450  0.44840982  0.25297781    -0.81200
O768        O  0.14834382  0.41724129  0.22550990    -0.81300
O769        O  0.14045690  0.58245859  0.27448064    -0.81200
O770        O  0.19141242  0.50691297  0.30714889    -0.81200
O771        O  0.18815951  0.49744073  0.19054721    -0.81300
Co772      Co  0.10744182  0.53933085  0.28614414     1.51500
Co773      Co  0.10951645  0.45630025  0.21603897     1.51700
Co774      Co  0.15110236  0.53596959  0.20834399     1.51600
Co775      Co  0.15786657  0.46514582  0.29145092     1.51500
O776        O  0.13149966  0.49912298  0.25040810    -1.43200
C777        C  0.17871212  0.52891035  0.33205211     1.08400
C778        C  0.17664361  0.47334431  0.16692275     1.08500
C779        C  0.17498199  0.58111699  0.26660915     1.08400
C780        C  0.18290308  0.42151143  0.23259844     1.08400
C781        C  0.48881745  0.48683486  0.53973502     0.01200
C782        C  0.46520066  0.51345532  0.52285478     0.01200
C783        C  0.47702412  0.53238052  0.49058886     0.01200
C784        C  0.51058110  0.52199248  0.47321209     0.01200
C785        C  0.53343806  0.49437731  0.48952285     0.01200
C786        C  0.52149164  0.47544231  0.52161655     0.01200
C787        C  0.98962314  0.47897292  0.96656886     0.01200
C788        C  0.02004214  0.46425338  0.98642889     0.01200
C789        C  0.03289040  0.48222157  0.01864197     0.01200
C790        C  0.01356596  0.51342569  0.03229059     0.01200
C791        C  0.98270173  0.52758293  0.01249112     0.01200
C792        C  0.96906136  0.50857780  0.98137172     0.01200
C793        C  0.06609500  0.54994869  0.11398700    -0.14400
C794        C  0.05452600  0.52376408  0.14139204     0.07700
C795        C  0.02231603  0.50245820  0.13513176    -0.14400
C796        C  0.00545621  0.50316349  0.09986071    -0.14400
C797        C  0.02080950  0.52503535  0.07092366     0.07700
C798        C  0.04951985  0.55025215  0.07859510    -0.14400
H799        H  0.09042059  0.56740199  0.11856413     0.11700
H800        H  0.01268023  0.48238823  0.15588832     0.11700
H801        H  0.98317904  0.48351013  0.09390628     0.11700
H802        H  0.06149225  0.56720461  0.05633677     0.11700
C803        C  0.49907463  0.49875936  0.60682818    -0.14400
C804        C  0.48276504  0.47649602  0.57891756     0.07700
C805        C  0.45533140  0.45047414  0.58807651    -0.14400
C806        C  0.44028511  0.45065289  0.62387557    -0.14400
C807        C  0.45248606  0.47705838  0.65047132     0.07700
C808        C  0.48401124  0.49894365  0.64284395    -0.14400
H809        H  0.52061952  0.51885311  0.59963906     0.11700
H810        H  0.44284495  0.43313676  0.56659200     0.11700
H811        H  0.41587140  0.43354890  0.62901538     0.11700
H812        H  0.49387777  0.51941377  0.66286189     0.11700
C813        C  0.49276626  0.50856607  0.90611105    -0.14400
C814        C  0.47479541  0.53065263  0.93316602     0.07700
C815        C  0.44455642  0.55342006  0.92325132    -0.14400
C816        C  0.42863638  0.54957466  0.88797545    -0.14400
C817        C  0.44273636  0.52262853  0.86282500     0.07700
C818        C  0.47666277  0.50445451  0.87076840    -0.14400
H819        H  0.51639252  0.49092448  0.91390940     0.11700
H820        H  0.43069239  0.57056562  0.94407668     0.11700
H821        H  0.40282428  0.56463311  0.88209296     0.11700
H822        H  0.48825299  0.48400888  0.85164611     0.11700
C823        C  0.88359615  0.55794577  0.94755565    -0.14400
C824        C  0.85774162  0.54442933  0.97422050     0.07700
C825        C  0.86630261  0.51197977  0.99491105    -0.14400
C826        C  0.90234316  0.49691367  0.99318217    -0.14400
C827        C  0.92970810  0.51432783  0.97091984     0.07700
C828        C  0.91969608  0.54320202  0.94623722    -0.14400
H829        H  0.87727729  0.58256720  0.93064637     0.11700
H830        H  0.84682072  0.50094283  0.01540884     0.11700
H831        H  0.91008164  0.47442473  0.01235999     0.11700
H832        H  0.94066089  0.55672133  0.92893767     0.11700
C833        C  0.61269100  0.56031840  0.05649403    -0.14400
C834        C  0.63731534  0.54721005  0.02855808     0.07700
C835        C  0.62723824  0.51619794  0.00701596    -0.14400
C836        C  0.59083295  0.50251337  0.00924629    -0.14400
C837        C  0.56462290  0.51988183  0.03286953     0.07700
C838        C  0.57618411  0.54700849  0.05830113    -0.14400
H839        H  0.62024072  0.58381886  0.07402739     0.11700
H840        H  0.64576806  0.50551593  0.98552685     0.11700
H841        H  0.58189764  0.48133804  0.98950848     0.11700
H842        H  0.55615492  0.56044385  0.07669188     0.11700
C843        C  0.05780443  0.44583044  0.42587830    -0.14400
C844        C  0.02553594  0.46759134  0.43069665     0.07700
C845        C  0.00862426  0.48543503  0.39985628    -0.14400
C846        C  0.02679448  0.48606034  0.36546269    -0.14400
C847        C  0.06223187  0.46931316  0.36213814     0.07700
C848        C  0.07631068  0.44683634  0.39158757    -0.14400
H849        H  0.07089317  0.43188402  0.44968212     0.11700
H850        H  0.98363263  0.50237077  0.40350341     0.11700
H851        H  0.01505769  0.50301040  0.34292973     0.11700
H852        H  0.10324816  0.43296088  0.38929666     0.11700
C853        C  0.63667956  0.48616768  0.49614538    -0.14400
C854        C  0.64255981  0.45454653  0.47375664     0.07700
C855        C  0.61435571  0.44313411  0.44867059    -0.14400
C856        C  0.57888467  0.45946125  0.45022586    -0.14400
C857        C  0.57179662  0.48740650  0.47658468     0.07700
C858        C  0.60124158  0.50243784  0.49766473    -0.14400
H859        H  0.65799777  0.49556251  0.51557922     0.11700
H860        H  0.61856753  0.41911028  0.43067559     0.11700
H861        H  0.55620843  0.44774822  0.43385164     0.11700
H862        H  0.59579681  0.52409377  0.51816767     0.11700
C863        C  0.89110375  0.43265323  0.55495911    -0.14400
C864        C  0.86377307  0.44577032  0.52943163     0.07700
C865        C  0.86963226  0.47937539  0.50975913    -0.14400
C866        C  0.90457638  0.49625685  0.51107669    -0.14400
C867        C  0.93357283  0.47953325  0.53194392     0.07700
C868        C  0.92617651  0.44944026  0.55602430    -0.14400
H869        H  0.88673633  0.40724221  0.57119251     0.11700
H870        H  0.84879465  0.49031919  0.49035768     0.11700
H871        H  0.91031131  0.51962718  0.49234899     0.11700
H872        H  0.94853611  0.43647412  0.57223378     0.11700
C873        C  0.75440411  0.74960972  0.64740684    -0.14400
C874        C  0.77724815  0.76550646  0.67510861     0.07700
C875        C  0.80353955  0.79263958  0.66559260    -0.14400
C876        C  0.80312475  0.80780472  0.62961680    -0.14400
C877        C  0.77622999  0.79599714  0.60324300     0.07700
C878        C  0.75403160  0.76472085  0.61126463    -0.14400
H879        H  0.73414616  0.72829076  0.65481596     0.11700
H880        H  0.82140287  0.80476107  0.68689560     0.11700
H881        H  0.82057626  0.83193136  0.62408415     0.11700
H882        H  0.73320432  0.75510710  0.59139884     0.11700
C883        C  0.74548964  0.74536280  0.85006659    -0.14400
C884        C  0.72350798  0.73014600  0.82128347     0.07700
C885        C  0.69882956  0.70093558  0.82915263    -0.14400
C886        C  0.69980145  0.68375339  0.86431019    -0.14400
C887        C  0.72541023  0.69575321  0.89185550     0.07700
C888        C  0.74637053  0.72828504  0.88540520    -0.14400
H889        H  0.76482011  0.76794603  0.84401979     0.11700
H890        H  0.68187128  0.68897593  0.80702932     0.11700
H891        H  0.68303930  0.65886300  0.86864297     0.11700
H892        H  0.76616864  0.73817031  0.90615165     0.11700
C893        C  0.69648865  0.19510931  0.17789380    -0.14400
C894        C  0.71750511  0.22738344  0.18425664     0.07700
C895        C  0.73625333  0.24502792  0.15455520    -0.14400
C896        C  0.73824532  0.22775995  0.11982501    -0.14400
C897        C  0.72178195  0.19255475  0.11490134     0.07700
C898        C  0.69874789  0.17757290  0.14322809    -0.14400
H899        H  0.68200472  0.18135520  0.20081891     0.11700
H900        H  0.75278837  0.26994331  0.15945692     0.11700
H901        H  0.75570363  0.24010993  0.09826029     0.11700
H902        H  0.68514357  0.15072684  0.13975862     0.11700
C903        C  0.80438367  0.29390361  0.33526680    -0.14400
C904        C  0.77706431  0.26801007  0.32529403     0.07700
C905        C  0.75309805  0.25293413  0.35258392    -0.14400
C906        C  0.75262863  0.26784619  0.38854239    -0.14400
C907        C  0.77621118  0.29783951  0.39702204     0.07700
C908        C  0.80432651  0.30843615  0.37138219    -0.14400
H909        H  0.82317260  0.30536218  0.31433187     0.11700
H910        H  0.73201456  0.23260965  0.34484334     0.11700
H911        H  0.73099376  0.25905414  0.40791125     0.11700
H912        H  0.82345743  0.33103118  0.37778299     0.11700
C913        C  0.68508433  0.43730853  0.36378781    -0.17500
C914        C  0.71292388  0.44688458  0.38770865    -0.32700
H915        H  0.67230684  0.41007813  0.36823949     0.11500
H916        H  0.72450460  0.47495500  0.38603903     0.12100
C917        C  0.70407010  0.54791404  0.11451923    -0.17500
C918        C  0.67656490  0.55824092  0.13850153    -0.32700
H919        H  0.71566936  0.51977281  0.11670910     0.11500
H920        H  0.66384437  0.58555880  0.13360399     0.12100
C921        C  0.54611162  0.44971911  0.12758475    -0.14400
C922        C  0.53734951  0.47988178  0.15146454     0.07700
C923        C  0.50954126  0.50562943  0.14097258    -0.14400
C924        C  0.49537562  0.50486141  0.10459367    -0.14400
C925        C  0.50899845  0.47839882  0.07898841     0.07700
C926        C  0.53231209  0.44926400  0.09108207    -0.14400
H927        H  0.56726260  0.42922904  0.13548442     0.11700
H928        H  0.50242146  0.52899706  0.15890031     0.11700
H929        H  0.47695804  0.52730300  0.09518489     0.11700
H930        H  0.54258045  0.42854849  0.07147296     0.11700
C931        C  0.51645528  0.51075025  0.37069782    -0.14400
C932        C  0.55099980  0.52800287  0.36440119     0.07700
C933        C  0.56570050  0.55265615  0.39133813    -0.14400
C934        C  0.54912921  0.55535374  0.42638281    -0.14400
C935        C  0.51805787  0.53323635  0.43446410     0.07700
C936        C  0.50010555  0.51318409  0.40593056    -0.14400
H937        H  0.50442690  0.49200393  0.35017038     0.11700
H938        H  0.59209933  0.56679611  0.38679395     0.11700
H939        H  0.56300150  0.57093108  0.44837479     0.11700
H940        H  0.47597018  0.49595841  0.41221188     0.11700
C941        C  0.72833832  0.38530677  0.25674383    -0.14400
C942        C  0.69456239  0.39104626  0.27574520     0.07700
C943        C  0.68234254  0.36408529  0.30207645    -0.14400
C944        C  0.70062984  0.32974299  0.30533801    -0.14400
C945        C  0.73097565  0.32212195  0.28204652     0.07700
C946        C  0.74651778  0.35076319  0.25990503    -0.14400
H947        H  0.73849019  0.40574170  0.23660892     0.11700
H948        H  0.65652693  0.36797652  0.31748828     0.11700
H949        H  0.68834370  0.30767946  0.32229908     0.11700
H950        H  0.76995487  0.34481027  0.24158237     0.11700
C951        C  0.74077892  0.75284866  0.35022733    -0.14400
C952        C  0.72119778  0.77008678  0.32052054     0.07700
C953        C  0.69927860  0.80182463  0.32688529    -0.14400
C954        C  0.70122373  0.81931629  0.36152795    -0.14400
C955        C  0.72547863  0.80530209  0.38969669     0.07700
C956        C  0.74298220  0.77046869  0.38488736    -0.14400
H957        H  0.75780299  0.72811856  0.34528070     0.11700
H958        H  0.68408238  0.81520414  0.30401983     0.11700
H959        H  0.68660699  0.84577572  0.36486435     0.11700
H960        H  0.76129962  0.75883715  0.40633755     0.11700
C961        C  0.75889570  0.74188366  0.15232667    -0.14400
C962        C  0.77976167  0.72430210  0.18095233     0.07700
C963        C  0.80245791  0.69350692  0.17298983    -0.14400
C964        C  0.80025910  0.67718676  0.13777598    -0.14400
C965        C  0.77504835  0.69144347  0.11063296     0.07700
C966        C  0.75652008  0.72547879  0.11708023    -0.14400
H967        H  0.74119563  0.76583289  0.15854790     0.11700
H968        H  0.81858537  0.67984503  0.19503024     0.11700
H969        H  0.81538648  0.65122280  0.13320067     0.11700
H970        H  0.73722366  0.73715569  0.09652882     0.11700
C971        C  0.70039616  0.66733469  0.19975400    -0.14400
C972        C  0.72970006  0.67571507  0.22401765     0.07700
C973        C  0.74703529  0.64737195  0.24548677    -0.14400
C974        C  0.73149956  0.61168140  0.24683723    -0.14400
C975        C  0.69859171  0.60470379  0.22675821     0.07700
C976        C  0.68497505  0.63173886  0.20093333    -0.14400
H977        H  0.68711901  0.68918637  0.18302414     0.11700
H978        H  0.77001351  0.65400282  0.26418945     0.11700
H979        H  0.74249613  0.59131419  0.26676900     0.11700
H980        H  0.65963419  0.62697020  0.18499175     0.11700
C981        C  0.21021606  0.04826784  0.60819863    -0.17500
C982        C  0.18573173  0.05956438  0.63492956    -0.32700
H983        H  0.21946052  0.01919310  0.60797585     0.11500
H984        H  0.17524191  0.08817115  0.63300935     0.12100
C985        C  0.54765959  0.38882931  0.21164240    -0.17500
C986        C  0.55922782  0.36235065  0.18728854    -0.32700
H987        H  0.51874764  0.38885845  0.22104517     0.11500
H988        H  0.58755667  0.36437485  0.17643350     0.12100
C989        C  0.60898049  0.20993517  0.04927414    -0.17500
C990        C  0.63769423  0.18750746  0.06069221    -0.32700
H991        H  0.60649500  0.21745400  0.01978206     0.11500
H992        H  0.63804332  0.17849300  0.08985742     0.12100
C993        C  0.44193005  0.38877624  0.07372826    -0.14400
C994        C  0.46563564  0.36139021  0.05797459     0.07700
C995        C  0.48312990  0.36860797  0.02360518    -0.14400
C996        C  0.48182593  0.40465838  0.00849628    -0.31200
C997        C  0.46279085  0.43326800  0.02753246     0.07700
C998        C  0.44069452  0.42481334  0.05861101    -0.14400
H999        H  0.42757499  0.38357890  0.09998817     0.11700
H1000       H  0.50123472  0.34789349  0.01079432     0.11700
H1001       H  0.49888670  0.41119488  0.98423203     0.11700
H1002       H  0.42577010  0.44680903  0.07324763     0.11700
C1003       C  0.64235545  0.30225609  0.17723863    -0.14400
C1004       C  0.61320442  0.28111667  0.19321608     0.07700
C1005       C  0.61651933  0.26793575  0.23020418    -0.14400
C1006       C  0.65089130  0.26991674  0.24830545    -0.14400
C1007       C  0.68167126  0.28515660  0.22943648     0.07700
C1008       C  0.67668782  0.30438989  0.19551914    -0.14400
H1009       H  0.63995828  0.31379894  0.14912151     0.11700
H1010       H  0.59403729  0.25253240  0.24350097     0.11700
H1011       H  0.65466420  0.25528791  0.27483737     0.11700
H1012       H  0.70037257  0.31669479  0.18114238     0.11700
C1013       C  0.57585904  0.05782391  0.94217505    -0.14400
C1014       C  0.56728510  0.02652160  0.96410058     0.07700
C1015       C  0.59563032  0.00741660  0.98392872    -0.14400
C1016       C  0.63142011  0.02261305  0.98604963    -0.14400
C1017       C  0.63861755  0.05708656  0.96851942     0.07700
C1018       C  0.61153753  0.07301754  0.94425269    -0.14400
H1019       H  0.55405316  0.07264693  0.92680639     0.11700
H1020       H  0.58897111  0.98306900  0.00098340     0.11700
H1021       H  0.65188830  0.00970106  0.00464565     0.11700
H1022       H  0.61663012  0.09941724  0.92993184     0.11700
C1023       C  0.50312884  0.10619785  0.99932366    -0.14400
C1024       C  0.52538590  0.07681434  0.01352834     0.07700
C1025       C  0.55065697  0.08324229  0.04265747    -0.14400
C1026       C  0.54970665  0.11749374  0.06105854    -0.14400
C1027       C  0.52289161  0.14487454  0.05076389     0.07700
C1028       C  0.50176639  0.14026868  0.01799460    -0.14400
H1029       H  0.48353055  0.10120581  0.97662629     0.11700
H1030       H  0.56797099  0.06062338  0.05365163     0.11700
H1031       H  0.56715882  0.12095576  0.08571330     0.11700
H1032       H  0.48137731  0.16117397  0.00920018     0.11700
C1033       C  0.70366689  0.04595157  0.86214528    -0.17500
C1034       C  0.69295582  0.07301882  0.88634374    -0.32700
H1035       H  0.73207677  0.03504995  0.86381343     0.11500
H1036       H  0.66526614  0.08509793  0.88227685     0.12100
C1037       C  0.70095623  0.95946212  0.63533806    -0.17500
C1038       C  0.69042193  0.93047859  0.61359125    -0.32700
H1039       H  0.72852376  0.97160973  0.63153524     0.11500
H1040       H  0.66383791  0.91714782  0.61972899     0.12100
C1041       C  0.74037563  0.88545549  0.74321925    -0.14400
C1042       C  0.70895354  0.89440438  0.72132698     0.07700
C1043       C  0.69636015  0.86887855  0.69407768    -0.14400
C1044       C  0.71046647  0.83248459  0.69360803    -0.14400
C1045       C  0.73758712  0.82197854  0.71990647     0.07700
C1046       C  0.75465617  0.84909022  0.74252218    -0.14400
H1047       H  0.75073369  0.90475884  0.76413365     0.11700
H1048       H  0.67248825  0.87550525  0.67639668     0.11700
H1049       H  0.69733082  0.81168020  0.67594940     0.11700
H1050       H  0.77591467  0.84094001  0.76281333     0.11700
C1051       C  0.57029648  0.95325278  0.88475649    -0.14400
C1052       C  0.55803922  0.97674273  0.85523603     0.07700
C1053       C  0.52318574  0.99477899  0.85761924    -0.14400
C1054       C  0.50398031  0.99435538  0.89141390    -0.14400
C1055       C  0.51942260  0.97560193  0.92250151     0.07700
C1056       C  0.55086862  0.95263615  0.91845980    -0.14400
H1057       H  0.59678361  0.93842300  0.88320530     0.11700
H1058       H  0.51286165  0.01252104  0.83500794     0.11700
H1059       H  0.47944988  0.01208792  0.89454977     0.11700
H1060       H  0.56267780  0.93791838  0.94247189     0.11700
C1061       C  0.54032778  0.63972263  0.30224188    -0.17500
C1062       C  0.56651069  0.61458448  0.31390505    -0.32700
H1063       H  0.52982219  0.63861113  0.27364601     0.11500
H1064       H  0.57845895  0.61825146  0.34168617     0.12100
C1065       C  0.61273659  0.78724906  0.45087488    -0.17500
C1066       C  0.63831430  0.81304026  0.43953671    -0.32700
H1067       H  0.61329024  0.77727470  0.47972409     0.11500
H1068       H  0.63539282  0.82416423  0.41122772     0.12100
C1069       C  0.47841302  0.63442054  0.48161420    -0.14400
C1070       C  0.46659585  0.63767561  0.44422772     0.07700
C1071       C  0.44577179  0.60849892  0.42796462    -0.14400
C1072       C  0.44279849  0.57416880  0.44643374    -0.14400
C1073       C  0.46096987  0.56908942  0.48085591     0.07700
C1074       C  0.47543253  0.60005336  0.49999627    -0.14400
H1075       H  0.49347561  0.65691094  0.49513776     0.11700
H1076       H  0.43513952  0.61081634  0.39952705     0.11700
H1077       H  0.43094403  0.55047414  0.43180477     0.11700
H1078       H  0.48913980  0.59632076  0.52696381     0.11700
C1079       C  0.63312281  0.69746602  0.31459836    -0.14400
C1080       C  0.60748913  0.72547126  0.30285069     0.07700
C1081       C  0.61558020  0.74722692  0.27107625    -0.14400
C1082       C  0.65103322  0.74496094  0.25498310    -0.14400
C1083       C  0.67838627  0.72107408  0.27063901     0.07700
C1084       C  0.66870833  0.69560247  0.29882813    -0.14400
H1085       H  0.62711252  0.67958674  0.33854330     0.11700
H1086       H  0.59622109  0.76865441  0.26125233     0.11700
H1087       H  0.65846593  0.76474084  0.23303207     0.11700
H1088       H  0.68963266  0.67699745  0.31098559     0.11700
C1089       C  0.57647467  0.94552381  0.55727365    -0.14400
C1090       C  0.56772365  0.97706523  0.53566554     0.07700
C1091       C  0.59593856  0.99668180  0.51659788    -0.14400
C1092       C  0.63158318  0.98118603  0.51386216    -0.14400
C1093       C  0.63871030  0.94614929  0.53032425     0.07700
C1094       C  0.61214861  0.93016627  0.55481886    -0.14400
H1095       H  0.55475654  0.93045439  0.57219233     0.11700
H1096       H  0.58909466  0.02135743  0.49994154     0.11700
H1097       H  0.65178556  0.99424590  0.49537193     0.11700
H1098       H  0.61742638  0.90345726  0.56861026     0.11700
C1099       C  0.42805111  0.05460449  0.44443440    -0.14400
C1100       C  0.43457676  0.02167141  0.46470015     0.07700
C1101       C  0.40476660  0.00183741  0.48075220    -0.14400
C1102       C  0.36962183  0.01847533  0.48267639    -0.14400
C1103       C  0.36462910  0.05471407  0.46820748     0.07700
C1104       C  0.39286902  0.07111462  0.44601442    -0.14400
H1105       H  0.45103095  0.06971971  0.43162800     0.11700
H1106       H  0.40989545  0.97599004  0.49618903     0.11700
H1107       H  0.34799069  0.00500999  0.49912885     0.11700
H1108       H  0.38916648  0.09867391  0.43347587     0.11700
C1109       C  0.50338166  0.00821370  0.60369680    -0.14400
C1110       C  0.51807671  0.02887771  0.57358234     0.07700
C1111       C  0.54791135  0.05331876  0.57936275    -0.14400
C1112       C  0.56667101  0.05262170  0.61361419    -0.14400
C1113       C  0.55543677  0.02761687  0.64215923     0.07700
C1114       C  0.52195891  0.00767292  0.63809067    -0.14400
H1115       H  0.48025449  0.98915304  0.59924774     0.11700
H1116       H  0.55941483  0.06928494  0.55614671     0.11700
H1117       H  0.59213644  0.06878052  0.61631051     0.11700
H1118       H  0.51248945  0.98855627  0.65980092     0.11700
C1119       C  0.50006867  0.89950099  0.50148248    -0.14400
C1120       C  0.52572064  0.92533052  0.48667121     0.07700
C1121       C  0.55448380  0.91331889  0.46326404    -0.14400
C1122       C  0.55449242  0.87651305  0.45065671    -0.14400
C1123       C  0.52503470  0.85220243  0.46055247     0.07700
C1124       C  0.49971546  0.86279484  0.48845543    -0.14400
H1125       H  0.47795093  0.90882255  0.52003524     0.11700
H1126       H  0.57466401  0.93309600  0.45219592     0.11700
H1127       H  0.57469638  0.86857144  0.42949528     0.11700
H1128       H  0.47688202  0.84454428  0.49650585     0.11700
C1129       C  0.45527382  0.88934832  0.29278599    -0.17500
C1130       C  0.44494547  0.86580791  0.32103222    -0.32700
H1131       H  0.48356784  0.88769727  0.28185129     0.11500
H1132       H  0.41727184  0.86999738  0.33291077     0.12100
C1133       C  0.43539299  0.11288749  0.19172921    -0.17500
C1134       C  0.46334895  0.13644350  0.20203179    -0.32700
H1135       H  0.42301564  0.11748521  0.16420431     0.11500
H1136       H  0.47501394  0.13433756  0.23014960     0.12100
C1137       C  0.30525917  0.03903092  0.36026310    -0.17500
C1138       C  0.31502090  0.06692894  0.38411606    -0.32700
H1139       H  0.27731563  0.02728281  0.36202739     0.11500
H1140       H  0.34232288  0.07962043  0.38015852     0.12100
C1141       C  0.43214720  0.05558077  0.10929443    -0.14400
C1142       C  0.44780207  0.02998723  0.13541765     0.07700
C1143       C  0.48075081  0.01071399  0.12640023    -0.14400
C1144       C  0.49456248  0.01287214  0.08994823    -0.14400
C1145       C  0.47548956  0.03425726  0.06266395     0.07700
C1146       C  0.44580001  0.05748450  0.07285748    -0.14400
H1147       H  0.40687912  0.07116111  0.11578284     0.11700
H1148       H  0.49332557  0.99096982  0.14601380     0.11700
H1149       H  0.51772122  0.99486211  0.08200794     0.11700
H1150       H  0.43108724  0.07414899  0.05189286     0.11700
C1151       C  0.44299430  0.94715526  0.38257577    -0.14400
C1152       C  0.45392581  0.97534056  0.35692465     0.07700
C1153       C  0.48525385  0.99731397  0.36503305    -0.14400
C1154       C  0.50159027  0.99509684  0.40058108    -0.14400
C1155       C  0.48661029  0.97105175  0.42804891     0.07700
C1156       C  0.45912732  0.94519567  0.41818321    -0.14400
H1157       H  0.41929615  0.92927326  0.37663433     0.11700
H1158       H  0.49438784  0.01896664  0.34569362     0.11700
H1159       H  0.52279659  0.01536439  0.40812889     0.11700
H1160       H  0.44720822  0.92668517  0.43916868     0.11700
C1161       C  0.61362741  0.28986397  0.55188844    -0.17500
C1162       C  0.63735018  0.31849652  0.56016911    -0.32700
H1163       H  0.61493742  0.27768907  0.52408179     0.11500
H1164       H  0.63343272  0.33176328  0.58723538     0.12100
C1165       C  0.56753962  0.11498410  0.69180583    -0.17500
C1166       C  0.53964459  0.13927417  0.70157056    -0.32700
H1167       H  0.57887761  0.11833594  0.66374022     0.11500
H1168       H  0.52923559  0.13871539  0.73016353     0.12100
C1169       C  0.38937641  0.21413152  0.54828728    -0.17500
C1170       C  0.36264930  0.18879551  0.55848987    -0.32700
H1171       H  0.39051881  0.22350291  0.51925955     0.11500
H1172       H  0.36423914  0.17818983  0.58707441     0.12100
C1173       C  0.43120430  0.38585235  0.69399761    -0.17500
C1174       C  0.46118863  0.36319370  0.70172480    -0.32700
H1175       H  0.41706804  0.38045242  0.66757617     0.11500
H1176       H  0.47458054  0.36532465  0.72900247     0.12100
C1177       C  0.55697541  0.39228264  0.57411947    -0.14400
C1178       C  0.53406763  0.36471482  0.55775131     0.07700
C1179       C  0.51664491  0.37203210  0.52323352    -0.14400
C1180       C  0.51696420  0.40829043  0.50866466    -0.14400
C1181       C  0.53457823  0.43707646  0.52862191     0.07700
C1182       C  0.55679546  0.42867614  0.55982044    -0.14400
H1183       H  0.57161170  0.38687552  0.60030633     0.11700
H1184       H  0.49936084  0.35111004  0.50982532     0.11700
H1185       H  0.49989334  0.41479347  0.48423371     0.11700
H1186       H  0.57070142  0.45080239  0.57512046     0.11700
C1187       C  0.48935777  0.13436924  0.52069984    -0.14400
C1188       C  0.47065769  0.13991881  0.55473251     0.07700
C1189       C  0.44685733  0.11173799  0.56874212    -0.14400
C1190       C  0.44645751  0.07651846  0.55215982    -0.14400
C1191       C  0.46947586  0.06964066  0.52133021     0.07700
C1192       C  0.48877339  0.09919983  0.50406159    -0.14400
H1193       H  0.50746754  0.15577641  0.50910657     0.11700
H1194       H  0.43143538  0.11569140  0.59456410     0.11700
H1195       H  0.43143495  0.05376033  0.56557593     0.11700
H1196       H  0.50669278  0.09394007  0.48015105     0.11700
C1197       C  0.25709468  0.24914601  0.64276114    -0.14400
C1198       C  0.27714806  0.23296983  0.67269182     0.07700
C1199       C  0.30032947  0.20203083  0.66681722    -0.14400
C1200       C  0.29865419  0.18364398  0.63268796    -0.14400
C1201       C  0.27388042  0.19634481  0.60442802     0.07700
C1202       C  0.25549273  0.23084692  0.60845808    -0.14400
H1203       H  0.23914026  0.27327696  0.64734899     0.11700
H1204       H  0.31594410  0.18955174  0.68990539     0.11700
H1205       H  0.31382082  0.15741497  0.62994070     0.11700
H1206       H  0.23677691  0.24147325  0.58685635     0.11700
C1207       C  0.22673665  0.11751428  0.73386965    -0.14400
C1208       C  0.19085083  0.11302411  0.71856554     0.07700
C1209       C  0.17578691  0.14135364  0.69517626    -0.14400
C1210       C  0.19382046  0.17573258  0.69179089    -0.14400
C1211       C  0.22671719  0.18194473  0.71207522     0.07700
C1212       C  0.24461574  0.15198885  0.73061797    -0.14400
H1213       H  0.23926900  0.09588274  0.75140219     0.11700
H1214       H  0.14850233  0.13822323  0.68224046     0.11700
H1215       H  0.17981805  0.19874980  0.67740452     0.11700
H1216       H  0.27010161  0.15667598  0.74647634     0.11700
C1217       C  0.28513559  0.33502874  0.80071979    -0.14400
C1218       C  0.26100608  0.32472205  0.77181586     0.07700
C1219       C  0.24658019  0.35192733  0.74692848    -0.14400
C1220       C  0.26105281  0.38806708  0.74700286    -0.14400
C1221       C  0.28986985  0.39668268  0.77205668     0.07700
C1222       C  0.29911633  0.37130581  0.80122082    -0.14400
H1223       H  0.29625749  0.31422797  0.82011266     0.11700
H1224       H  0.22756833  0.34394192  0.72464069     0.11700
H1225       H  0.25337686  0.40728825  0.72452346     0.11700
H1226       H  0.32084704  0.37784709  0.82137065     0.11700
C1227       C  0.34386997  0.26968043  0.74245507    -0.14400
C1228       C  0.31458478  0.28662976  0.72205976     0.07700
C1229       C  0.32229700  0.30749274  0.68976530    -0.14400
C1230       C  0.35830995  0.30679369  0.67502221    -0.14400
C1231       C  0.38637620  0.28444206  0.69210511     0.07700
C1232       C  0.37978926  0.26841471  0.72742165    -0.14400
H1233       H  0.33797567  0.25362389  0.76768395     0.11700
H1234       H  0.29983172  0.32086021  0.67401338     0.11700
H1235       H  0.36302131  0.32043259  0.64818039     0.11700
H1236       H  0.40109357  0.25166392  0.74142570     0.11700
C1237       C  0.29521221  0.45235194  0.86311547    -0.17500
C1238       C  0.30577933  0.42921675  0.89178910    -0.32700
H1239       H  0.26580098  0.45979913  0.86030733     0.11500
H1240       H  0.33497550  0.42063577  0.89233084     0.12100
C1241       C  0.19273930  0.42939274  0.11358865    -0.17500
C1242       C  0.20279232  0.45778429  0.13693737    -0.32700
H1243       H  0.16500899  0.41769653  0.11770375     0.11500
H1244       H  0.23107977  0.46867774  0.13531763     0.12100
C1245       C  0.36212276  0.29478169  0.04706147    -0.17500
C1246       C  0.38479678  0.30554737  0.07535395    -0.32700
H1247       H  0.36489575  0.26662533  0.03593426     0.11500
H1248       H  0.37984966  0.33293071  0.08755287     0.12100
C1249       C  0.13533990  0.47235095  0.01182609    -0.14400
C1250       C  0.13978535  0.43703218  0.02874412     0.07700
C1251       C  0.11124478  0.42285421  0.05204111    -0.14400
C1252       C  0.07664874  0.44079912  0.05344635    -0.14400
C1253       C  0.07069316  0.47308653  0.03188035     0.07700
C1254       C  0.10073437  0.49038107  0.01345013    -0.14400
H1255       H  0.15707982  0.48410723  0.99423742     0.11700
H1256       H  0.11432309  0.39601168  0.06619924     0.11700
H1257       H  0.05351322  0.42732707  0.06772193     0.11700
H1258       H  0.09613628  0.51546811  0.99665010     0.11700
C1259       C  0.35915298  0.47554051  0.99350597    -0.14400
C1260       C  0.35661729  0.44029731  0.97651259     0.07700
C1261       C  0.38593944  0.42787936  0.95327166    -0.14400
C1262       C  0.41926202  0.44788007  0.95133094    -0.14400
C1263       C  0.42355357  0.48003796  0.97303298     0.07700
C1264       C  0.39264383  0.49532652  0.99180080    -0.14400
H1265       H  0.33682710  0.48598722  0.01115193     0.11700
H1266       H  0.38446494  0.40104454  0.93929636     0.11700
H1267       H  0.44303729  0.43586471  0.93681535     0.11700
H1268       H  0.39586593  0.52019613  0.00882067     0.11700
C1269       C  0.19504828  0.30234860  0.86734563    -0.14400
C1270       C  0.22416350  0.29067244  0.89162845     0.07700
C1271       C  0.24908592  0.26263151  0.88019120    -0.14400
C1272       C  0.24834648  0.25067445  0.84309439    -0.14400
C1273       C  0.22276533  0.26672181  0.81759182     0.07700
C1274       C  0.19464159  0.29074328  0.83015864    -0.14400
H1275       H  0.17510167  0.32361542  0.87596237     0.11700
H1276       H  0.27167673  0.25328131  0.89837822     0.11700
H1277       H  0.27000962  0.23174658  0.83334896     0.11700
H1278       H  0.17454089  0.30283916  0.81061419     0.11700
C1279       C  0.21043782  0.32887917  0.19482126    -0.14400
C1280       C  0.23930097  0.32004007  0.21986538     0.07700
C1281       C  0.25676623  0.34845940  0.24046915    -0.14400
C1282       C  0.24133503  0.38439606  0.24085515    -0.14400
C1283       C  0.20848449  0.39169823  0.22052287     0.07700
C1284       C  0.19528568  0.36489460  0.19481732    -0.14400
H1285       H  0.19699451  0.30707224  0.17865681     0.11700
H1286       H  0.27930661  0.34165812  0.25981728     0.11700
H1287       H  0.25224519  0.40471477  0.26047580     0.11700
H1288       H  0.17044448  0.37031093  0.17807058     0.11700
C1289       C  0.19768001  0.18660537  0.36590116    -0.14400
C1290       C  0.22292758  0.20087924  0.39271842     0.07700
C1291       C  0.24107222  0.23485564  0.38575271    -0.14400
C1292       C  0.23953630  0.25028477  0.34982746    -0.14400
C1293       C  0.21991595  0.23162540  0.32136587     0.07700
C1294       C  0.19642481  0.20183599  0.33002792    -0.14400
H1295       H  0.18285518  0.16062169  0.37089212     0.11700
H1296       H  0.26026219  0.24655826  0.40611450     0.11700
H1297       H  0.25756151  0.27373320  0.34301378     0.11700
H1298       H  0.18103957  0.18759188  0.30813108     0.11700
C1299       C  0.37572610  0.19306289  0.20429561    -0.14400
C1300       C  0.39995095  0.22255232  0.21416673     0.07700
C1301       C  0.38994717  0.24658162  0.24337182    -0.14400
C1302       C  0.35368951  0.24517301  0.25771404    -0.14400
C1303       C  0.32759977  0.21984851  0.24283344     0.07700
C1304       C  0.33941656  0.19197254  0.21826929    -0.14400
H1305       H  0.38300021  0.17397968  0.18193420     0.11700
H1306       H  0.40806316  0.26946648  0.25144294     0.11700
H1307       H  0.34458183  0.26691707  0.27679648     0.11700
H1308       H  0.31952061  0.17241917  0.20652040     0.11700
C1309       C  0.29285156  0.16285284  0.30739466    -0.14400
C1310       C  0.26726927  0.17573261  0.28059354     0.07700
C1311       C  0.25211593  0.15063914  0.25439186    -0.14400
C1312       C  0.26678348  0.11442062  0.25128283    -0.14400
C1313       C  0.29660143  0.10338443  0.27448623     0.07700
C1314       C  0.30729236  0.12665637  0.30449601    -0.14400
H1315       H  0.30472745  0.18197851  0.32765557     0.11700
H1316       H  0.23231081  0.16057897  0.23340761     0.11700
H1317       H  0.25812071  0.09710017  0.22797757     0.11700
H1318       H  0.33016343  0.11864562  0.32291090     0.11700
C1319       C  0.30895476  0.30589031  0.13612161    -0.14400
C1320       C  0.28190074  0.29117939  0.11141938     0.07700
C1321       C  0.26342137  0.25797024  0.12082120    -0.14400
C1322       C  0.26664794  0.24395522  0.15722224    -0.14400
C1323       C  0.28804760  0.26340786  0.18381787     0.07700
C1324       C  0.31171820  0.29223160  0.17258303    -0.14400
H1325       H  0.32424026  0.33109871  0.12902216     0.11700
H1326       H  0.24289564  0.24590016  0.10204100     0.11700
H1327       H  0.24844831  0.22129127  0.16599828     0.11700
H1328       H  0.32848782  0.30710779  0.19298743     0.11700
C1329       C  0.86270721  0.29716175  0.46263224    -0.17500
C1330       C  0.88890760  0.30665444  0.43620535    -0.32700
H1331       H  0.86170008  0.26831091  0.47251571     0.11500
H1332       H  0.88738579  0.33521063  0.42546932     0.12100
C1333       C  0.13646731  0.18069531  0.43886000    -0.17500
C1334       C  0.11428308  0.21068863  0.44751330    -0.32700
H1335       H  0.13035057  0.16702114  0.41242578     0.11500
H1336       H  0.11749618  0.22373701  0.47474829     0.12100
C1337       C  0.04343969  0.36285620  0.29685377    -0.17500
C1338       C  0.07094319  0.38705056  0.30696092    -0.32700
H1339       H  0.03311447  0.36357019  0.26815812     0.11500
H1340       H  0.08242524  0.38378975  0.33507366     0.12100
C1341       C  0.98502726  0.36575745  0.47734118    -0.14400
C1342       C  0.97014727  0.36277143  0.44106535     0.07700
C1343       C  0.94921313  0.39276899  0.42571575    -0.14400
C1344       C  0.94869354  0.42726956  0.44366090    -0.14400
C1345       C  0.96904023  0.43160433  0.47685684     0.07700
C1346       C  0.98451634  0.40026937  0.49519174    -0.14400
H1347       H  0.00053712  0.34278757  0.49010599     0.11700
H1348       H  0.93652514  0.39077234  0.39815057     0.11700
H1349       H  0.93631103  0.45138277  0.42961792     0.11700
H1350       H  0.00010664  0.40353335  0.52110655     0.11700
C1351       C  0.88294598  0.24082142  0.26717852    -0.14400
C1352       C  0.89205437  0.21965068  0.29912808     0.07700
C1353       C  0.86613714  0.19355213  0.31350049    -0.14400
C1354       C  0.82935752  0.19392714  0.30066260    -0.14400
C1355       C  0.81904946  0.21950830  0.27272775     0.07700
C1356       C  0.84628266  0.24077405  0.25401696    -0.14400
H1357       H  0.90256652  0.26078144  0.25545045     0.11700
H1358       H  0.87301689  0.17622639  0.33768896     0.11700
H1359       H  0.80842043  0.17711859  0.31481225     0.11700
H1360       H  0.83824023  0.26033549  0.23196425     0.11700
C1361       C  0.15468404  0.26348553  0.25055571    -0.14400
C1362       C  0.18380870  0.28291305  0.26824909     0.07700
C1363       C  0.17596836  0.30627505  0.29856091    -0.14400
C1364       C  0.14049794  0.30543306  0.31472034    -0.14400
C1365       C  0.11302231  0.28085489  0.30082195     0.07700
C1366       C  0.11927092  0.26240527  0.26682080    -0.14400
H1367       H  0.16059638  0.24536943  0.22698343     0.11700
H1368       H  0.19827681  0.32146533  0.31233972     0.11700
H1369       H  0.13594876  0.32088122  0.34039768     0.11700
H1370       H  0.09837195  0.24385785  0.25517705     0.11700
C1371       C  0.81960346  0.44057553  0.63756242    -0.17500
C1372       C  0.79286225  0.45116102  0.61275902    -0.32700
H1373       H  0.83230456  0.41317683  0.63352585     0.11500
H1374       H  0.78169416  0.47953857  0.61371071     0.12100
C1375       C  0.81905664  0.56232419  0.86430133    -0.17500
C1376       C  0.79112666  0.55120615  0.88741056    -0.32700
H1377       H  0.83214628  0.58902628  0.87040428     0.11500
H1378       H  0.77919905  0.52348108  0.88402253     0.12100
C1379       C  0.94334050  0.55022590  0.61814331    -0.14400
C1380       C  0.95522010  0.52306600  0.64465600     0.07700
C1381       C  0.98682137  0.50103971  0.63723221    -0.14400
C1382       C  0.00259718  0.50218127  0.60156154    -0.14400
C1383       C  0.98687016  0.52543201  0.57368109     0.07700
C1384       C  0.95908602  0.55132130  0.58263336    -0.14400
H1385       H  0.91893510  0.56755549  0.62317962     0.11700
H1386       H  0.99643003  0.47999456  0.65716486     0.11700
H1387       H  0.02424218  0.48205726  0.59448305     0.11700
H1388       H  0.94687915  0.56926530  0.56112551     0.11700
C1389       C  0.98635878  0.49695776  0.86432152    -0.14400
C1390       C  0.95380181  0.47719418  0.85559928     0.07700
C1391       C  0.94042740  0.44968683  0.88083930    -0.14400
C1392       C  0.95565511  0.44623435  0.91649230    -0.14400
C1393       C  0.98431699  0.47023363  0.92698141     0.07700
C1394       C  0.00157455  0.49352843  0.90024483    -0.14400
H1395       H  0.99714016  0.51818265  0.84537944     0.11700
H1396       H  0.91513686  0.43419897  0.87494176     0.11700
H1397       H  0.94224730  0.42829816  0.93708342     0.11700
H1398       H  0.02394942  0.51217986  0.90852680     0.11700
C1399       C  0.76553424  0.61265121  0.75360972    -0.14400
C1400       C  0.79879745  0.60587846  0.77336824     0.07700
C1401       C  0.81125280  0.63199528  0.80013189    -0.14400
C1402       C  0.79463847  0.66708885  0.80215273    -0.14400
C1403       C  0.76567132  0.67592725  0.77741511     0.07700
C1404       C  0.74896426  0.64796318  0.75558202    -0.14400
H1405       H  0.75527601  0.59280671  0.73317567     0.11700
H1406       H  0.83677077  0.62728137  0.81595229     0.11700
H1407       H  0.80752254  0.68865209  0.81906553     0.11700
H1408       H  0.72627328  0.65495129  0.73648559     0.11700
C1409       C  0.75328842  0.15676141  0.75980730    -0.14400
C1410       C  0.73578216  0.18274018  0.78352241     0.07700
C1411       C  0.70863050  0.17098050  0.80893544    -0.14400
C1412       C  0.69483812  0.13472025  0.80640048    -0.14400
C1413       C  0.70762191  0.11070712  0.77783746     0.07700
C1414       C  0.73913141  0.12060151  0.75685586    -0.14400
H1415       H  0.77453820  0.16592201  0.74014298     0.11700
H1416       H  0.69518076  0.19089408  0.82743154     0.11700
H1417       H  0.67097774  0.12722036  0.82352240     0.11700
H1418       H  0.74963219  0.10242469  0.73499104     0.11700
C1419       C  0.80580677  0.21349569  0.83709342    -0.14400
C1420       C  0.77895801  0.23976447  0.82593022     0.07700
C1421       C  0.75511652  0.25614788  0.85255122    -0.14400
C1422       C  0.75378887  0.24171417  0.88895554    -0.14400
C1423       C  0.77645229  0.21098984  0.89844253     0.07700
C1424       C  0.80491297  0.19950323  0.87356726    -0.14400
H1425       H  0.82440623  0.20089848  0.81673348     0.11700
H1426       H  0.73438270  0.27678172  0.84388018     0.11700
H1427       H  0.73186829  0.25112192  0.90765359     0.11700
H1428       H  0.82311418  0.17607451  0.88054307     0.11700
C1429       C  0.67541074  0.19740779  0.70285009    -0.14400
C1430       C  0.68035473  0.21966396  0.73456820     0.07700
C1431       C  0.64935589  0.23628383  0.75193032    -0.14400
C1432       C  0.61464453  0.23602967  0.73412744    -0.14400
C1433       C  0.61108103  0.21913026  0.69890773     0.07700
C1434       C  0.64066317  0.19702196  0.68503895    -0.14400
H1435       H  0.69922821  0.18419141  0.68951949     0.11700
H1436       H  0.65306056  0.25338596  0.77668834     0.11700
H1437       H  0.59203229  0.25255946  0.74578453     0.11700
H1438       H  0.63819739  0.18278901  0.65838654     0.11700
C1439       C  0.69385223  0.30909893  0.67859172    -0.14400
C1440       C  0.71438154  0.27643725  0.68596957     0.07700
C1441       C  0.73243328  0.25762117  0.65664296    -0.14400
C1442       C  0.73480830  0.27435657  0.62137785    -0.14400
C1443       C  0.71921161  0.31004046  0.61551261     0.07700
C1444       C  0.69627237  0.32593990  0.64334527    -0.14400
H1445       H  0.67988245  0.32377417  0.70114478     0.11700
H1446       H  0.74855038  0.23235292  0.66226395     0.11700
H1447       H  0.75212129  0.26128364  0.60020684     0.11700
H1448       H  0.68320803  0.35313390  0.63914436     0.11700
C1449       C  0.79394689  0.33560804  0.70057331    -0.14400
C1450       C  0.76502701  0.32731287  0.72531833     0.07700
C1451       C  0.74920524  0.35556746  0.74755567    -0.14400
C1452       C  0.76593768  0.39073055  0.74911622    -0.14400
C1453       C  0.79862023  0.39726849  0.72858569     0.07700
C1454       C  0.81082738  0.37048524  0.70231013    -0.14400
H1455       H  0.80635612  0.31379806  0.68353235     0.11700
H1456       H  0.72676594  0.34901649  0.76689675     0.11700
H1457       H  0.75602364  0.41089017  0.76945898     0.11700
H1458       H  0.83613434  0.37470253  0.68624923     0.11700
C1459       C  0.54684386  0.86298044  0.79538912    -0.17500
C1460       C  0.57132354  0.88993508  0.80638676    -0.32700
H1461       H  0.53865782  0.86183299  0.76603579     0.11500
H1462       H  0.58090584  0.88861707  0.83531788     0.12100
C1463       C  0.61098237  0.71278522  0.95355710    -0.17500
C1464       C  0.63770476  0.68705610  0.94389652    -0.32700
H1465       H  0.60931946  0.72191593  0.98251084     0.11500
H1466       H  0.63661755  0.67708799  0.91522390     0.12100
C1467       C  0.46241841  0.63632905  0.80503596    -0.17500
C1468       C  0.43395918  0.61309526  0.81556049    -0.32700
H1469       H  0.47465613  0.63293640  0.77739646     0.11500
H1470       H  0.42081412  0.61907498  0.84232060     0.12100
C1471       C  0.55075434  0.61742595  0.94145193    -0.14400
C1472       C  0.52422633  0.64484201  0.95192251     0.07700
C1473       C  0.50070689  0.63796966  0.98252989    -0.14400
C1474       C  0.49994214  0.60232778  0.99872355    -0.14400
C1475       C  0.52260281  0.57357151  0.98438293     0.07700
C1476       C  0.54961626  0.58164795  0.95734894    -0.14400
H1477       H  0.56978003  0.62242395  0.91832620     0.11700
H1478       H  0.48021426  0.65863336  0.99122088     0.11700
H1479       H  0.47896831  0.59610577  0.01977352     0.11700
H1480       H  0.56726617  0.55958443  0.94622136     0.11700
C1481       C  0.64399972  0.80348379  0.82202968    -0.14400
C1482       C  0.61555594  0.78154480  0.80571968     0.07700
C1483       C  0.62054527  0.76732291  0.76959540    -0.14400
C1484       C  0.65561390  0.76961201  0.75284671    -0.14400
C1485       C  0.68564728  0.78565240  0.77241827     0.07700
C1486       C  0.67919375  0.80518106  0.80555144    -0.14400
H1487       H  0.64042572  0.81591662  0.84945191     0.11700
H1488       H  0.59879134  0.75115655  0.75609587     0.11700
H1489       H  0.66051296  0.75459752  0.72696120     0.11700
H1490       H  0.70222552  0.81782055  0.82069158     0.11700
C1491       C  0.48215057  0.87354032  0.97180837    -0.14400
C1492       C  0.46884338  0.86811106  0.93523674     0.07700
C1493       C  0.44735939  0.89651793  0.91767387    -0.14400
C1494       C  0.44442032  0.93177716  0.93395967    -0.14400
C1495       C  0.46281633  0.93858913  0.96785197     0.07700
C1496       C  0.47907796  0.90878445  0.98809030    -0.14400
H1497       H  0.49815769  0.85190304  0.98621096     0.11700
H1498       H  0.43587997  0.89267089  0.88979407     0.11700
H1499       H  0.43167059  0.95465474  0.91823307     0.11700
H1500       H  0.49334990  0.91393112  0.01443717     0.11700
C1501       C  0.25234760  0.85095682  0.75415005    -0.14400
C1502       C  0.23615531  0.82447785  0.77846540     0.07700
C1503       C  0.21012982  0.83568801  0.80518751    -0.14400
C1504       C  0.19596561  0.87199234  0.80356039    -0.14400
C1505       C  0.20725738  0.89666680  0.77466996     0.07700
C1506       C  0.23789887  0.88726262  0.75224716    -0.14400
H1507       H  0.27273549  0.84220908  0.73347108     0.11700
H1508       H  0.19763200  0.81538695  0.82407730     0.11700
H1509       H  0.17250804  0.87888727  0.82142438     0.11700
H1510       H  0.24711957  0.90586448  0.72997368     0.11700
C1511       C  0.29830509  0.67252008  0.69857586    -0.14400
C1512       C  0.26726516  0.68055088  0.72076647     0.07700
C1513       C  0.24937727  0.65192778  0.74099297    -0.14400
C1514       C  0.26597885  0.61666526  0.74377842    -0.14400
C1515       C  0.30059741  0.61043293  0.72656129     0.07700
C1516       C  0.31508764  0.63744789  0.70157382    -0.14400
H1517       H  0.31214225  0.69459220  0.68290109     0.11700
H1518       H  0.22523531  0.65820092  0.75824106     0.11700
H1519       H  0.25412438  0.59608347  0.76280373     0.11700
H1520       H  0.34156560  0.63297879  0.68751211     0.11700
C1521       C  0.33011538  0.69608100  0.79756152    -0.14400
C1522       C  0.32040328  0.72077002  0.76856456     0.07700
C1523       C  0.34819676  0.74166781  0.75021749    -0.14400
C1524       C  0.38460176  0.74211063  0.76438093    -0.14400
C1525       C  0.39309632  0.72160924  0.79696052     0.07700
C1526       C  0.36659320  0.69611979  0.81142865    -0.14400
H1527       H  0.30882116  0.67975347  0.81174688     0.11700
H1528       H  0.34071364  0.76078048  0.72759361     0.11700
H1529       H  0.40454145  0.76173005  0.75263912     0.11700
H1530       H  0.37282269  0.67938432  0.83619269     0.11700
C1531       C  0.19452352  0.57332655  0.38479988    -0.17500
C1532       C  0.20444396  0.54430441  0.36230739    -0.32700
H1533       H  0.16752271  0.58641843  0.37922318     0.11500
H1534       H  0.23229008  0.53225941  0.36525581     0.12100
C1535       C  0.29099475  0.55190655  0.61477608    -0.17500
C1536       C  0.31780108  0.56276340  0.63941499    -0.32700
H1537       H  0.28020138  0.52352403  0.61639824     0.11500
H1538       H  0.32995257  0.59031701  0.63522313     0.12100
C1539       C  0.36170679  0.70060032  0.46424293    -0.17500
C1540       C  0.38644681  0.69097824  0.43707576    -0.32700
H1541       H  0.36248354  0.72879004  0.47551050     0.11500
H1542       H  0.38332692  0.66346022  0.42461341     0.12100
C1543       C  0.37980504  0.56085654  0.55696321    -0.14400
C1544       C  0.35497515  0.55016613  0.52811899     0.07700
C1545       C  0.36333030  0.51855736  0.50659445    -0.14400
C1546       C  0.39873527  0.50214558  0.50944120    -0.14400
C1547       C  0.42572133  0.51742184  0.53361530     0.07700
C1548       C  0.41532491  0.54473743  0.55945896    -0.14400
H1549       H  0.37351288  0.58460765  0.57470264     0.11700
H1550       H  0.34450527  0.50944698  0.48461105     0.11700
H1551       H  0.40667872  0.48086519  0.48936792     0.11700
H1552       H  0.43591622  0.55664975  0.57827714     0.11700
C1553       C  0.11503582  0.56610243  0.44491507    -0.14400
C1554       C  0.14326222  0.55243413  0.46914124     0.07700
C1555       C  0.13835166  0.51831984  0.48812993    -0.14400
C1556       C  0.10323271  0.50194096  0.48843660    -0.14400
C1557       C  0.07351129  0.51943484  0.46936940     0.07700
C1558       C  0.07990763  0.54962644  0.44520894    -0.14400
H1559       H  0.11861427  0.59206905  0.42938759     0.11700
H1560       H  0.15990062  0.50701593  0.50652424     0.11700
H1561       H  0.09817579  0.47824700  0.50693484     0.11700
H1562       H  0.05691617  0.56288833  0.43016437     0.11700
C1563       C  0.23353679  0.73086745  0.61730584    -0.14400
C1564       C  0.21799141  0.69509502  0.61347033     0.07700
C1565       C  0.19546178  0.68032677  0.64229399    -0.14400
C1566       C  0.19387137  0.69819201  0.67680102    -0.14400
C1567       C  0.21486760  0.73063296  0.68230300     0.07700
C1568       C  0.23204457  0.74857795  0.65183500    -0.14400
H1569       H  0.25031392  0.74319481  0.59519668     0.11700
H1570       H  0.18229800  0.65316832  0.63954627     0.11700
H1571       H  0.18032274  0.68439584  0.70026295     0.11700
H1572       H  0.24825897  0.77383363  0.65601127     0.11700
C1573       C  0.32582531  0.80632353  0.30468966    -0.14400
C1574       C  0.31856689  0.78317312  0.27419579     0.07700
C1575       C  0.34799708  0.76498231  0.25562242    -0.14400
C1576       C  0.38382360  0.76538971  0.27087095    -0.14400
C1577       C  0.38988099  0.78360063  0.30498692     0.07700
C1578       C  0.36164085  0.80676709  0.31997070    -0.14400
H1579       H  0.30317922  0.82077651  0.31880659     0.11700
H1580       H  0.34239473  0.74725860  0.23168739     0.11700
H1581       H  0.40528409  0.74780517  0.25857499     0.11700
H1582       H  0.36601910  0.82177643  0.34594175     0.11700
C1583       C  0.30554341  0.82343802  0.19618314    -0.14400
C1584       C  0.27280445  0.81873771  0.21700993     0.07700
C1585       C  0.25577582  0.84959919  0.23420112    -0.14400
C1586       C  0.27451970  0.88357413  0.23584312    -0.14400
C1587       C  0.31039028  0.88660905  0.22030879     0.07700
C1588       C  0.32452067  0.85737451  0.19802286    -0.14400
H1589       H  0.31871515  0.79966546  0.18269055     0.11700
H1590       H  0.23034877  0.84603831  0.25036219     0.11700
H1591       H  0.26268507  0.90596925  0.25250782     0.11700
H1592       H  0.35177438  0.85946326  0.18494604     0.11700
C1593       C  0.23405929  0.61768959  0.26460558    -0.14400
C1594       C  0.19883832  0.61137061  0.28046667     0.07700
C1595       C  0.18331009  0.63826030  0.30480223    -0.14400
C1596       C  0.19924223  0.67363147  0.30741129    -0.14400
C1597       C  0.23094535  0.68176138  0.28618078     0.07700
C1598       C  0.25022345  0.65296108  0.26767192    -0.14400
H1599       H  0.24694063  0.59711031  0.24646036     0.11700
H1600       H  0.15665652  0.63350874  0.31844356     0.11700
H1601       H  0.18436340  0.69572210  0.32195515     0.11700
H1602       H  0.27500338  0.65921678  0.25132193     0.11700
C1603       C  0.30329879  0.71677134  0.34007515    -0.14400
C1604       C  0.27341370  0.73882853  0.32747487     0.07700
C1605       C  0.24678196  0.75244274  0.35291377    -0.14400
C1606       C  0.24676033  0.73935340  0.38979393    -0.14400
C1607       C  0.27321935  0.71237368  0.40085170     0.07700
C1608       C  0.30344093  0.70388261  0.37698277    -0.14400
H1609       H  0.32415314  0.70651618  0.32059383     0.11700
H1610       H  0.22377383  0.76992332  0.34315932     0.11700
H1611       H  0.22331008  0.74630235  0.40772052     0.11700
H1612       H  0.32432740  0.68328772  0.38519712     0.11700
C1613       C  0.88676409  0.70749530  0.04957421    -0.17500
C1614       C  0.86158001  0.68054986  0.05941664    -0.32700
H1615       H  0.88585467  0.71877112  0.02119133     0.11500
H1616       H  0.86507687  0.66831975  0.08721366     0.12100
C1617       C  0.05971500  0.63370574  0.18184900    -0.17500
C1618       C  0.05121086  0.60781488  0.20866039    -0.32700
H1619       H  0.08792463  0.63270298  0.17054045     0.11500
H1620       H  0.02263193  0.60636304  0.21889466     0.12100
C1621       C  0.99528435  0.63050602  0.01386885    -0.14400
C1622       C  0.97184681  0.63958808  0.04387108     0.07700
C1623       C  0.94436065  0.61396632  0.05581688    -0.14400
C1624       C  0.94513627  0.57729777  0.04291747    -0.14400
C1625       C  0.97263062  0.56688531  0.01733826     0.07700
C1626       C  0.99569123  0.59396672  0.00063512    -0.14400
H1627       H  0.01645913  0.64991061  0.00410395     0.11700
H1628       H  0.92546016  0.62089502  0.07849229     0.11700
H1629       H  0.92691186  0.55646822  0.05539682     0.11700
H1630       H  0.01671927  0.58582831  0.98033515     0.11700
C1631       C  0.88690135  0.74849127  0.22992616    -0.14400
C1632       C  0.89397533  0.77041956  0.19799621     0.07700
C1633       C  0.86729798  0.79736264  0.18622297    -0.14400
C1634       C  0.83186269  0.79809258  0.20233593    -0.14400
C1635       C  0.82335817  0.77252124  0.23081930     0.07700
C1636       C  0.85154973  0.74956478  0.24629581    -0.14400
H1637       H  0.90706669  0.72779305  0.23969494     0.11700
H1638       H  0.87248373  0.81525377  0.16208787     0.11700
H1639       H  0.81021056  0.81592025  0.19030530     0.11700
H1640       H  0.84498010  0.72968461  0.26845026     0.11700
C1641       C  0.11720052  0.72975920  0.22720935    -0.14400
C1642       C  0.11431516  0.71461785  0.19112066     0.07700
C1643       C  0.14470065  0.69436021  0.17623362    -0.14400
C1644       C  0.17918676  0.69442189  0.19459374    -0.14400
C1645       C  0.18325481  0.71484517  0.22769212     0.07700
C1646       C  0.15169052  0.72995861  0.24538622    -0.14400
H1647       H  0.09401830  0.74487513  0.23963152     0.11700
H1648       H  0.14287622  0.68160807  0.14878648     0.11700
H1649       H  0.20344573  0.68235429  0.18094986     0.11700
H1650       H  0.15464608  0.74571694  0.27112142     0.11700
C1651       C  0.11368149  0.78822372  0.04882964    -0.17500
C1652       C  0.14019751  0.81265103  0.06020569    -0.32700
H1653       H  0.11306261  0.77978990  0.01959585     0.11500
H1654       H  0.13843552  0.82285260  0.08877690     0.12100
C1655       C  0.36415139  0.80186018  0.95752661    -0.17500
C1656       C  0.38891727  0.81123707  0.93011001    -0.32700
H1657       H  0.36526057  0.77365882  0.96924080     0.11500
H1658       H  0.38563494  0.83889417  0.91747802     0.12100
C1659       C  0.29351866  0.95121963  0.10774528    -0.17500
C1660       C  0.31635832  0.93978246  0.13619940    -0.32700
H1661       H  0.28588510  0.98067163  0.10555342     0.11500
H1662       H  0.32532778  0.91064533  0.13628440     0.12100
C1663       C  0.18983405  0.92868420  0.88304528    -0.17500
C1664       C  0.19845029  0.95763047  0.85952871    -0.32700
H1665       H  0.16276972  0.91553871  0.87896451     0.11500
H1666       H  0.22605217  0.97011798  0.86148138     0.12100
C1667       C  0.25073215  0.76308195  0.88524056    -0.14400
C1668       C  0.27565595  0.79104800  0.89625850     0.07700
C1669       C  0.30524428  0.80141599  0.87224393    -0.14400
C1670       C  0.30560708  0.78935822  0.83525052    -0.14400
C1671       C  0.27703717  0.76608822  0.82276935     0.07700
C1672       C  0.25141244  0.75064527  0.84832663    -0.14400
H1673       H  0.22776409  0.75476449  0.90323331     0.11700
H1674       H  0.32495003  0.82285205  0.88042332     0.11700
H1675       H  0.32566148  0.80103895  0.81567822     0.11700
H1676       H  0.22939895  0.73224510  0.83860902     0.11700
C1677       C  0.20104488  0.81888924  0.13866269    -0.14400
C1678       C  0.22549373  0.80536919  0.11094422     0.07700
C1679       C  0.24317729  0.77049341  0.11589123    -0.14400
C1680       C  0.24110307  0.75241201  0.15046168    -0.14400
C1681       C  0.22105168  0.76900232  0.17974063     0.07700
C1682       C  0.19859769  0.80048286  0.17301964    -0.14400
H1683       H  0.18653639  0.84543817  0.13513985     0.11700
H1684       H  0.26169242  0.75924926  0.09468910     0.11700
H1685       H  0.25863034  0.72801009  0.15573184     0.11700
H1686       H  0.18310437  0.81334319  0.19568948     0.11700
C1687       C  0.41576971  0.96072339  0.04562557    -0.14400
C1688       C  0.42310286  0.98850832  0.01896492     0.07700
C1689       C  0.39426863  0.00280014  0.99613379    -0.14400
C1690       C  0.35963198  0.98519785  0.99571468    -0.14400
C1691       C  0.35417263  0.95331586  0.01814276     0.07700
C1692       C  0.38104814  0.94336533  0.04552322    -0.14400
H1693       H  0.43796844  0.94979844  0.06347138     0.11700
H1694       H  0.39998475  0.02458164  0.97557390     0.11700
H1695       H  0.33906936  0.99368936  0.97486254     0.11700
H1696       H  0.37685418  0.91943871  0.06394198     0.11700
C1697       C  0.06783263  0.88480227  0.68950751    -0.17500
C1698       C  0.03789360  0.86295083  0.69859833    -0.32700
H1699       H  0.08084832  0.87965383  0.66249426     0.11500
H1700       H  0.02565501  0.86541054  0.72633330     0.12100
C1701       C  0.93540411  0.61560968  0.68835579    -0.17500
C1702       C  0.96365819  0.63892200  0.69820517    -0.32700
H1703       H  0.92200576  0.62109244  0.66146888     0.11500
H1704       H  0.97586577  0.63652474  0.72605656     0.12100
C1705       C  0.13457471  0.68541939  0.56035233    -0.17500
C1706       C  0.11169738  0.71440649  0.55057674    -0.32700
H1707       H  0.12995158  0.67216451  0.58747896     0.11500
H1708       H  0.11371762  0.72639312  0.52257107     0.12100
C1709       C  0.86494170  0.81804083  0.55513080    -0.17500
C1710       C  0.88772218  0.78864886  0.54648840    -0.32700
H1711       H  0.87065741  0.83171962  0.58164366     0.11500
H1712       H  0.88528910  0.77577420  0.51908509     0.12100
C1713       C  0.11560956  0.76860504  0.73056706    -0.14400
C1714       C  0.11083558  0.78529071  0.69513498     0.07700
C1715       C  0.13949397  0.80801804  0.68037564    -0.14400
C1716       C  0.17447477  0.80881952  0.69775500    -0.14400
C1717       C  0.18070686  0.78713074  0.73000468     0.07700
C1718       C  0.15054192  0.76961427  0.74799324    -0.14400
H1719       H  0.09379435  0.75150574  0.74284975     0.11700
H1720       H  0.13616419  0.82203070  0.65347479     0.11700
H1721       H  0.19761297  0.82254337  0.68375223     0.11700
H1722       H  0.15522013  0.75276722  0.77304035     0.11700
C1723       C  0.01692993  0.63320945  0.52045802    -0.14400
C1724       C  0.03399208  0.63900791  0.55537143     0.07700
C1725       C  0.05677588  0.61055238  0.57112347    -0.14400
C1726       C  0.05751331  0.57496963  0.55523522    -0.14400
C1727       C  0.03593856  0.56798372  0.52330644     0.07700
C1728       C  0.01790998  0.59770339  0.50449125    -0.14400
H1729       H  0.99969661  0.65479935  0.50748542     0.11700
H1730       H  0.07100658  0.61464615  0.59766486     0.11700
H1731       H  0.07163495  0.55216556  0.56983062     0.11700
H1732       H  0.00119228  0.59243466  0.47966281     0.11700
C1733       C  0.88179552  0.73038651  0.72720702    -0.14400
C1734       C  0.88701073  0.71639440  0.69099082     0.07700
C1735       C  0.85852328  0.69481135  0.67432400    -0.14400
C1736       C  0.82328746  0.69283149  0.69081301    -0.14400
C1737       C  0.81666638  0.71200675  0.72417921     0.07700
C1738       C  0.84665173  0.72802482  0.74383270    -0.14400
H1739       H  0.90348794  0.74643677  0.74094116     0.11700
H1740       H  0.86217458  0.68275798  0.64674476     0.11700
H1741       H  0.80032254  0.68025817  0.67552657     0.11700
H1742       H  0.84169581  0.74286152  0.76980801     0.11700
C1743       C  0.89779713  0.00316814  0.50147576    -0.14400
C1744       C  0.92359601  0.99052341  0.47464718     0.07700
C1745       C  0.91190976  0.96665363  0.44609494    -0.14400
C1746       C  0.87611022  0.95144956  0.44746239    -0.14400
C1747       C  0.85220135  0.95952831  0.47779445     0.07700
C1748       C  0.86204451  0.98769684  0.50307734    -0.14400
H1749       H  0.90680467  0.02160524  0.52377016     0.11700
H1750       H  0.93162395  0.95668348  0.42532862     0.11700
H1751       H  0.86879932  0.93008855  0.42728264     0.11700
H1752       H  0.84413235  0.99434673  0.52662497     0.11700
C1753       C  0.08847225  0.03464582  0.54827934    -0.14400
C1754       C  0.07560296  0.01220467  0.51909227     0.07700
C1755       C  0.10065914  0.99949968  0.49157496    -0.14400
C1756       C  0.13709632  0.01339421  0.49025603    -0.14400
C1757       C  0.14838523  0.04013399  0.51646377     0.07700
C1758       C  0.12493756  0.04828255  0.54716448    -0.14400
H1759       H  0.06937514  0.04451989  0.56966575     0.11700
H1760       H  0.09075509  0.98206948  0.46884491     0.11700
H1761       H  0.15454630  0.00683600  0.46634067     0.11700
H1762       H  0.13327838  0.06868007  0.56794174     0.11700
C1763       C  0.00326242  0.98363889  0.59441028    -0.14400
C1764       C  0.02263340  0.96663319  0.56478485     0.07700
C1765       C  0.05457578  0.94510051  0.57188999    -0.14400
C1766       C  0.07031004  0.94549371  0.60756577    -0.14400
C1767       C  0.05429680  0.96789389  0.63580689     0.07700
C1768       C  0.01904666  0.98419960  0.63005988    -0.14400
H1769       H  0.97825162  0.00016970  0.58897235     0.11700
H1770       H  0.06936733  0.93156301  0.54914323     0.11700
H1771       H  0.09714039  0.93174689  0.61178155     0.11700
H1772       H  0.00594081  0.00105111  0.65156749     0.11700
C1773       C  0.05637686  0.07917436  0.44873796    -0.14400
C1774       C  0.03253585  0.07059398  0.47845416     0.07700
C1775       C  0.01237157  0.09926833  0.49630594    -0.14400
C1776       C  0.01125798  0.13518348  0.48068366    -0.14400
C1777       C  0.03059428  0.14235993  0.44732751     0.07700
C1778       C  0.05581934  0.11521004  0.43350915    -0.14400
H1779       H  0.07202828  0.05722470  0.43479574     0.11700
H1780       H  0.99387335  0.09268008  0.51947537     0.11700
H1781       H  0.99206924  0.15572773  0.49213204     0.11700
H1782       H  0.07187396  0.12043668  0.40825865     0.11700
C1783       C  0.98082112  0.90366426  0.50024825    -0.14400
C1784       C  0.96375473  0.93379250  0.51875400     0.07700
C1785       C  0.94193637  0.92730582  0.55055804    -0.14400
C1786       C  0.94244830  0.89190461  0.56727472    -0.14400
C1787       C  0.96525381  0.86330311  0.55240663     0.07700
C1788       C  0.98169888  0.86836460  0.51711554    -0.14400
H1789       H  0.99755300  0.90858402  0.47537188     0.11700
H1790       H  0.92840282  0.95040334  0.56481908     0.11700
H1791       H  0.92847272  0.88825144  0.59399001     0.11700
H1792       H  0.99871710  0.84653119  0.50470150     0.11700
C1793       C  0.96301272  0.13622833  0.30165564    -0.17500
C1794       C  0.93457967  0.11261289  0.31091641    -0.32700
H1795       H  0.97597583  0.13349114  0.27428407     0.11500
H1796       H  0.92062285  0.11827562  0.33730730     0.12100
C1797       C  0.81560470  0.06029850  0.13798905    -0.17500
C1798       C  0.79199581  0.04892585  0.11046506    -0.32700
H1799       H  0.82510387  0.08912888  0.13657116     0.11500
H1800       H  0.78383710  0.01965417  0.10927732     0.12100
C1801       C  0.81496606  0.93746962  0.35962981    -0.17500
C1802       C  0.79098004  0.95026758  0.38617450    -0.32700
H1803       H  0.82476515  0.90873307  0.36259255     0.11500
H1804       H  0.78239928  0.97954433  0.38569780     0.12100
C1805       C  0.96396304  0.85813331  0.19828056    -0.17500
C1806       C  0.93896193  0.88527490  0.18758786    -0.32700
H1807       H  0.97418990  0.85775111  0.22700088     0.11500
H1808       H  0.92761034  0.88260504  0.15947701     0.12100
C1809       C  0.77060499  0.88075705  0.25109487    -0.14400
C1810       C  0.80365079  0.88858419  0.27057576     0.07700
C1811       C  0.81771623  0.86238594  0.29706190    -0.14400
C1812       C  0.80207720  0.82697444  0.30014452    -0.14400
C1813       C  0.77218077  0.81772821  0.27695084     0.07700
C1814       C  0.75486648  0.84522320  0.25432556    -0.14400
H1815       H  0.75931987  0.90041560  0.23062566     0.11700
H1816       H  0.84316469  0.86783206  0.31268110     0.11700
H1817       H  0.81556592  0.80577979  0.31754063     0.11700
H1818       H  0.73164521  0.83788017  0.23617963     0.11700
C1819       C  0.81309686  0.13463213  0.20241157    -0.14400
C1820       C  0.80004976  0.10676811  0.22738896     0.07700
C1821       C  0.76699783  0.11290062  0.24745927    -0.14400
C1822       C  0.75063262  0.14842807  0.24691913    -0.14400
C1823       C  0.76710658  0.17745727  0.22605586     0.07700
C1824       C  0.79660481  0.16993791  0.20172950    -0.14400
H1825       H  0.83853119  0.13055591  0.18645207     0.11700
H1826       H  0.75638674  0.09186186  0.26671203     0.11700
H1827       H  0.72765047  0.15435191  0.26579497     0.11700
H1828       H  0.80938589  0.19232965  0.18558761     0.11700
C1829       C  0.99840784  0.00916471  0.40152034    -0.14400
C1830       C  0.97967736  0.03151195  0.42794317     0.07700
C1831       C  0.94969037  0.05408137  0.41700230    -0.14400
C1832       C  0.93492718  0.04998111  0.38127064    -0.14400
C1833       C  0.95001278  0.02317408  0.35643874     0.07700
C1834       C  0.98352182  0.00490826  0.36563656    -0.14400
H1835       H  0.02182745  0.99160040  0.41010281     0.11700
H1836       H  0.93519094  0.07135714  0.43727077     0.11700
H1837       H  0.90902085  0.06462605  0.37479497     0.11700
H1838       H  0.99562407  0.98428168  0.34702029     0.11700
C1839       C  0.13698350  0.29238245  0.96000503    -0.17500
C1840       C  0.10993353  0.30432250  0.93591363    -0.32700
H1841       H  0.13766326  0.26305228  0.96846238     0.11500
H1842       H  0.11175817  0.33309821  0.92601002     0.12100
C1843       C  0.05734150  0.13520181  0.81311026    -0.17500
C1844       C  0.04645433  0.10829719  0.78871601    -0.32700
H1845       H  0.08597258  0.13384181  0.82341716     0.11500
H1846       H  0.01737690  0.10733545  0.77972338     0.12100
C1847       C  0.95970322  0.36221831  0.79912492    -0.17500
C1848       C  0.93351121  0.38705768  0.81065898    -0.32700
H1849       H  0.97109287  0.36459981  0.77098892     0.11500
H1850       H  0.92085282  0.38186642  0.83783663     0.12100
C1851       C  0.88517702  0.19274778  0.93203933    -0.17500
C1852       C  0.86170264  0.20208997  0.96061161    -0.32700
H1853       H  0.88066201  0.16551366  0.91946603     0.11500
H1854       H  0.86346846  0.22994282  0.97257624     0.12100
C1855       C  0.11464576  0.23696261  0.76581990    -0.14400
C1856       C  0.10986797  0.21918715  0.80060642     0.07700
C1857       C  0.13864433  0.19622883  0.81538445    -0.14400
C1858       C  0.17367717  0.19591777  0.79860645    -0.14400
C1859       C  0.17971173  0.21839801  0.76706774     0.07700
C1860       C  0.14969498  0.23665669  0.74912517    -0.14400
H1861       H  0.09276347  0.25441181  0.75370126     0.11700
H1862       H  0.13530169  0.18163479  0.84193992     0.11700
H1863       H  0.19687544  0.18167899  0.81241140     0.11700
H1864       H  0.15443216  0.25407407  0.72455521     0.11700
C1865       C  0.00633766  0.36241987  0.97774393    -0.14400
C1866       C  0.02487028  0.35638983  0.94376449     0.07700
C1867       C  0.05049982  0.38329080  0.93038473    -0.14400
C1868       C  0.05349683  0.41783564  0.94782683    -0.14400
C1869       C  0.03082400  0.42554612  0.97858101     0.07700
C1870       C  0.00932263  0.39708113  0.99512576    -0.14400
H1871       H  0.98671017  0.34205833  0.98872084     0.11700
H1872       H  0.06554311  0.37912619  0.90438622     0.11700
H1873       H  0.06999814  0.43981703  0.93488502     0.11700
H1874       H  0.99153285  0.40316570  0.01894712     0.11700
C1875       C  0.87192996  0.30676073  0.80307660    -0.14400
C1876       C  0.89468680  0.27641904  0.79176420     0.07700
C1877       C  0.88257518  0.25320508  0.76277848    -0.14400
C1878       C  0.84564097  0.25604195  0.75037106    -0.14400
C1879       C  0.82111959  0.28199923  0.76698892     0.07700
C1880       C  0.83491156  0.30920094  0.79113288    -0.14400
H1881       H  0.88100685  0.32538855  0.82514814     0.11700
H1882       H  0.89963990  0.22983266  0.75353857     0.11700
H1883       H  0.83495223  0.23506052  0.73130757     0.11700
H1884       H  0.81621743  0.32949104  0.80379692     0.11700
C1885       C  0.88409462  0.06280194  0.05135869    -0.14400
C1886       C  0.85830139  0.05181993  0.02347709     0.07700
C1887       C  0.86607845  0.02024529  0.00171447    -0.14400
C1888       C  0.90136138  0.00351622  0.00392041    -0.14400
C1889       C  0.92897623  0.01847799  0.02758352     0.07700
C1890       C  0.91956785  0.04644499  0.05310194    -0.14400
H1891       H  0.87829782  0.08660528  0.06921617     0.11700
H1892       H  0.84662257  0.01106711  0.98032387     0.11700
H1893       H  0.90859854  0.98187679  0.98395706     0.11700
H1894       H  0.94069641  0.05822050  0.07139842     0.11700
C1895       C  0.00130388  0.99995189  0.89797157    -0.14400
C1896       C  0.01537907  0.02538065  0.92434679     0.07700
C1897       C  0.04157441  0.05220917  0.91352025    -0.14400
C1898       C  0.05751168  0.05012442  0.87799863    -0.14400
C1899       C  0.04776621  0.02074624  0.85362088     0.07700
C1900       C  0.01751260  0.99756704  0.86255862    -0.14400
H1901       H  0.98096284  0.97904932  0.90635227     0.11700
H1902       H  0.05251250  0.07194738  0.93372356     0.11700
H1903       H  0.08026886  0.06895887  0.87120535     0.11700
H1904       H  0.00933258  0.97497590  0.84412994     0.11700
C1905       C  0.05459184  0.92245385  0.05172578    -0.14400
C1906       C  0.03179234  0.93049637  0.02080588     0.07700
C1907       C  0.01200904  0.90172566  0.00301130    -0.14400
C1908       C  0.01083041  0.86611956  0.01910609    -0.14400
C1909       C  0.02950966  0.85929241  0.05307798     0.07700
C1910       C  0.05373751  0.88671775  0.06767283    -0.14400
H1911       H  0.06997322  0.94458120  0.06553273     0.11700
H1912       H  0.99426241  0.90792633  0.97899304     0.11700
H1913       H  0.99239986  0.84533321  0.00709114     0.11700
H1914       H  0.06919159  0.88174129  0.09346391     0.11700
C1915       C  0.09895613  0.99725872  0.98280208    -0.14400
C1916       C  0.06914303  0.97860622  0.96547006     0.07700
C1917       C  0.07575611  0.94662996  0.94415996    -0.14400
C1918       C  0.11103851  0.93008394  0.94508741    -0.14400
C1919       C  0.13950694  0.94536976  0.96767416     0.07700
C1920       C  0.13426840  0.98064756  0.98391179    -0.14400
H1921       H  0.09382741  0.02220409  0.99926428     0.11700
H1922       H  0.05279538  0.93223511  0.93058772     0.11700
H1923       H  0.11474603  0.90322235  0.93152165     0.11700
H1924       H  0.15593095  0.99320788  0.00098291     0.11700
C1925       C  0.00104851  0.99554298  0.09906824    -0.14400
C1926       C  0.98390133  0.97344468  0.07152013     0.07700
C1927       C  0.95532337  0.94884872  0.08099401    -0.14400
C1928       C  0.94010310  0.95048795  0.11663136    -0.14400
C1929       C  0.95339378  0.97681420  0.14283464     0.07700
C1930       C  0.98584410  0.99714896  0.13497767    -0.14400
H1931       H  0.02341111  0.01459181  0.09156812     0.11700
H1932       H  0.94208954  0.93175566  0.05975629     0.11700
H1933       H  0.91496956  0.93445912  0.12195056     0.11700
H1934       H  0.99657281  0.01744807  0.15470644     0.11700
C1935       C  0.94492384  0.07858496  0.94861974    -0.14400
C1936       C  0.96944704  0.06958789  0.97773928     0.07700
C1937       C  0.99002393  0.09768345  0.99576860    -0.14400
C1938       C  0.99049998  0.13383409  0.98086348    -0.14400
C1939       C  0.97040004  0.14151063  0.94793750     0.07700
C1940       C  0.94509855  0.11469815  0.93393421    -0.14400
H1941       H  0.92879241  0.05694915  0.93489151     0.11700
H1942       H  0.00886794  0.09059330  0.01868476     0.11700
H1943       H  0.00991461  0.15408887  0.99226201     0.11700
H1944       H  0.92890328  0.12012591  0.90871839     0.11700
loop_ 
_geom_bond_atom_site_label_1 
_geom_bond_atom_site_label_2 
_geom_bond_distance 
_geom_bond_site_symmetry_2 
_ccdc_geom_bond_type 
C1            C2   1.395   1_565  A
C1            C6   1.397   1_556  A
C1         C1916   1.461       .  S
C2            C3   1.394   1_455  A
C2         C1896   1.465       .  S
C3            C4   1.392   1_556  A
C3         C1936   1.456       .  S
C4            C5   1.395   1_545  A
C4         C1889   1.468       .  S
C5            C6   1.395   1_655  A
C5         C1926   1.457       .  S
C6         C1906   1.464       .  S
O7           C15   1.270       .  A
O7          Co27   2.029       .  S
O8           C16   1.277       .  A
O8          Co28   2.053       .  S
O9           C17   1.274       .  A
O9          Co29   1.980       .  S
O10          C18   1.269       .  A
O10         Co30   1.958       .  S
O11          C17   1.271       .  A
O11         Co28   1.983       .  S
O12          C18   1.273       .  A
O12         Co27   1.999       .  S
O13          C16   1.268       .  A
O13         Co30   1.986   1_655  S
O14          C15   1.278       .  A
O14         Co29   2.021   1_455  S
C15        C1843   1.504       .  S
C16        C1847   1.507       .  S
C17        C1876   1.463       .  S
C18        C1856   1.460       .  S
O19          C32   1.278       .  A
O19         Co27   2.028       .  S
O20          C33   1.281       .  A
O20         Co28   2.041       .  S
O21          C34   1.274       .  A
O21         Co29   1.986       .  S
O22          C35   1.273       .  A
O22         Co30   1.997       .  S
O23          C35   1.272   1_655  A
O23         Co28   1.967       .  S
O24          C34   1.274   1_455  A
O24         Co27   1.970       .  S
O25          C32   1.267       .  A
O25         Co30   2.023       .  S
O26          C33   1.272       .  A
O26         Co29   2.035       .  S
Co27         O31   2.107   1_455  S
Co28         O31   2.110       .  S
Co29         O31   2.103       .  S
Co30         O31   2.094   1_455  S
C32        C1840   1.506       .  S
C33        C1851   1.520       .  S
C34        C1939   1.461       .  S
C35        C1866   1.464       .  S
O36          C44   1.270       .  A
O36         Co56   2.028       .  S
O37          C45   1.272       .  A
O37         Co57   2.033       .  S
O38          C46   1.276       .  A
O38         Co58   1.978       .  S
O39          C47   1.274       .  A
O39         Co59   1.971       .  S
O40          C46   1.272       .  A
O40         Co57   1.985       .  S
O41          C47   1.274       .  A
O41         Co56   1.993       .  S
O42          C45   1.276       .  A
O42         Co59   2.015   1_565  S
O43          C44   1.278       .  A
O43         Co58   2.022   1_545  S
C44        C1797   1.505       .  S
C45        C1801   1.503       .  S
C46        C1810   1.464       .  S
C47        C1820   1.464       .  S
O48          C61   1.281       .  A
O48         Co56   2.037       .  S
O49          C62   1.283       .  A
O49         Co57   2.041       .  S
O50          C63   1.273       .  A
O50         Co58   1.982       .  S
O51          C64   1.271       .  A
O51         Co59   1.980       .  S
O52          C64   1.277   1_565  A
O52         Co57   1.981       .  S
O53          C63   1.276   1_545  A
O53         Co56   1.976       .  S
O54          C61   1.272       .  A
O54         Co59   2.038       .  S
O55          C62   1.272       .  A
O55         Co58   2.035       .  S
Co56         O60   2.108   1_545  S
Co57         O60   2.108       .  S
Co58         O60   2.103       .  S
Co59         O60   2.102   1_545  S
C61        C1794   1.523       .  S
C62        C1806   1.523       .  S
C63        C1929   1.462       .  S
C64        C1833   1.464       .  S
C65          C66   1.397   1_565  A
C65          C70   1.394       .  A
C65        C1744   1.468       .  S
C66          C67   1.394   1_655  A
C66        C1830   1.458       .  S
C67          C68   1.394       .  A
C67        C1774   1.465       .  S
C68          C69   1.400   1_545  A
C68        C1754   1.469       .  S
C69          C70   1.399   1_455  A
C69        C1764   1.460       .  S
C70        C1784   1.466       .  S
O71          C79   1.280       .  A
O71         Co91   2.058       .  S
O72          C80   1.281       .  A
O72         Co92   2.062       .  S
O73          C81   1.267       .  A
O73         Co93   1.977       .  S
O74          C82   1.265       .  A
O74         Co94   1.970       .  S
O75          C81   1.265       .  A
O75         Co92   1.986       .  S
O76          C82   1.267       .  A
O76         Co91   1.997       .  S
O77          C80   1.273       .  A
O77         Co94   1.998   1_655  S
O78          C79   1.278   1_655  A
O78         Co93   2.013       .  S
C79        C1698   1.524       .  S
C80        C1702   1.516       .  S
C81        C1734   1.469       .  S
C82        C1714   1.470       .  S
O83          C96   1.273       .  A
O83         Co91   1.997       .  S
O84          C97   1.276       .  A
O84         Co92   2.006       .  S
O85          C98   1.266       .  A
O85         Co93   1.989       .  S
O86          C99   1.267       .  A
O86         Co94   1.994       .  S
O87          C99   1.266       .  A
O87         Co92   1.970   1_455  S
O88          C98   1.265       .  A
O88         Co91   1.970   1_655  S
O89          C96   1.279       .  A
O89         Co94   2.055       .  S
O90          C97   1.283       .  A
O90         Co93   2.067       .  S
Co91         O95   2.107   1_455  S
Co92         O95   2.110       .  S
Co93         O95   2.109       .  S
Co94         O95   2.110   1_455  S
C96        C1706   1.512       .  S
C97        C1710   1.525       .  S
C98        C1787   1.467       .  S
C99        C1724   1.469       .  S
O100        C108   1.268       .  A
O100       Co120   2.026       .  S
O101        C109   1.280       .  A
O101       Co121   2.073       .  S
O102        C110   1.272       .  A
O102       Co122   1.975       .  S
O103        C111   1.264       .  A
O103       Co123   1.951       .  S
O104        C110   1.271       .  A
O104       Co121   1.981       .  S
O105        C111   1.274       .  A
O105       Co120   2.008       .  S
O106        C109   1.270       .  A
O106       Co123   2.000   1_556  S
O107        C108   1.276       .  A
O107       Co122   2.018   1_554  S
C108       C1652   1.502       .  S
C109       C1655   1.525       .  S
C110       C1668   1.460       .  S
C111       C1678   1.461       .  S
O112        C125   1.269       .  A
O112       Co120   1.997       .  S
O113        C126   1.278       .  A
O113       Co121   2.033       .  S
O114        C127   1.274       .  A
O114       Co122   1.998       .  S
O115        C128   1.271       .  A
O115       Co123   1.991       .  S
O116        C128   1.268   1_556  A
O116       Co121   1.964       .  S
O117        C127   1.269       .  A
O117       Co120   1.963   1_556  S
O118        C125   1.275       .  A
O118       Co123   2.057       .  S
O119        C126   1.272       .  A
O119       Co122   2.036       .  S
Co120       O124   2.102   1_554  S
Co121       O124   2.112       .  S
Co122       O124   2.108       .  S
Co123       O124   2.103   1_554  S
C125       C1659   1.515       .  S
C126       C1663   1.518       .  S
C127       C1919   1.464       .  S
C128       C1691   1.461       .  S
O129        C137   1.275       .  A
O129       Co149   2.012   1_655  S
O130        C138   1.281       .  A
O130       Co150   2.041   1_455  S
O131        C139   1.269       .  A
O131       Co151   1.988       .  S
O132        C140   1.273       .  A
O132       Co152   2.013       .  S
O133        C139   1.269       .  A
O133       Co150   1.972       .  S
O134        C140   1.265       .  A
O134       Co149   1.957       .  S
O135        C138   1.270       .  A
O135       Co152   2.029       .  S
O136        C137   1.279       .  A
O136       Co151   2.065       .  S
C137       C1805   1.529       .  S
C138       C1617   1.515       .  S
C139       C1632   1.467       .  S
C140       C1642   1.468       .  S
O141        C154   1.278       .  A
O141       Co149   2.063       .  S
O142        C155   1.283       .  A
O142       Co150   2.076       .  S
O143        C156   1.267   1_655  A
O143       Co151   1.968       .  S
O144        C157   1.266   1_455  A
O144       Co152   1.965       .  S
O145        C157   1.269       .  A
O145       Co150   1.984       .  S
O146        C156   1.268       .  A
O146       Co149   1.990       .  S
O147        C154   1.266       .  A
O147       Co152   1.984       .  S
O148        C155   1.274       .  A
O148       Co151   2.008       .  S
Co149       O153   2.110       .  S
Co150       O153   2.116   1_655  S
Co151       O153   2.106   1_655  S
Co152       O153   2.105       .  S
C154       C1651   1.509       .  S
C155       C1613   1.530       .  S
C156       C1909   1.465       .  S
C157       C1622   1.457       .  S
C158        C159   1.400       .  A
C158        C163   1.395       .  A
C158       C1597   1.462       .  S
C159        C160   1.399       .  A
C159       C1645   1.468       .  S
C160        C161   1.397       .  A
C160       C1681   1.458       .  S
C161        C162   1.394       .  A
C161       C1584   1.465       .  S
C162        C163   1.393       .  A
C162       C1574   1.462       .  S
C163       C1604   1.462       .  S
O164        C172   1.274       .  A
O164       Co184   2.020       .  S
O165        C173   1.270       .  A
O165       Co185   1.999       .  S
O166        C174   1.274       .  A
O166       Co186   2.007       .  S
O167        C175   1.274       .  A
O167       Co187   1.992       .  S
O168        C174   1.266       .  A
O168       Co185   1.953       .  S
O169        C175   1.272       .  A
O169       Co184   1.968       .  S
O170        C173   1.276       .  A
O170       Co187   2.056       .  S
O171        C172   1.269       .  A
O171       Co186   2.031       .  S
C172       C1705   1.506       .  S
C173       C1539   1.516       .  S
C174       C1564   1.462       .  S
C175       C1607   1.460       .  S
O176        C189   1.271       .  A
O176       Co184   2.034       .  S
O177        C190   1.273       .  A
O177       Co185   2.048       .  S
O178        C191   1.267       .  A
O178       Co186   1.954       .  S
O179        C192   1.273       .  A
O179       Co187   1.977       .  S
O180        C192   1.273       .  A
O180       Co185   1.995       .  S
O181        C191   1.274       .  A
O181       Co184   1.998       .  S
O182        C189   1.279       .  A
O182       Co187   2.035       .  S
O183        C190   1.269       .  A
O183       Co186   1.996       .  S
Co184       O188   2.108       .  S
Co185       O188   2.098       .  S
Co186       O188   2.099       .  S
Co187       O188   2.112       .  S
C189       C1531   1.517       .  S
C190       C1535   1.511       .  S
C191       C1554   1.457       .  S
C192       C1544   1.470       .  S
C193        C194   1.398       .  A
C193        C198   1.393       .  A
C193       C1502   1.459       .  S
C194        C195   1.398       .  A
C194       C1717   1.468       .  S
C195        C196   1.399       .  A
C195       C1567   1.462       .  S
C196        C197   1.395       .  A
C196       C1512   1.459       .  S
C197        C198   1.390       .  A
C197       C1522   1.467       .  S
C198       C1671   1.460       .  S
O199        C207   1.273       .  A
O199       Co219   2.036       .  S
O200        C208   1.279       .  A
O200       Co220   2.062       .  S
O201        C209   1.270       .  A
O201       Co221   1.974       .  S
O202        C210   1.267       .  A
O202       Co222   1.966       .  S
O203        C209   1.269       .  A
O203       Co220   1.988       .  S
O204        C210   1.270       .  A
O204       Co219   2.001       .  S
O205        C208   1.278       .  A
O205       Co222   2.020       .  S
O206        C207   1.281       .  A
O206       Co221   2.037       .  S
C207       C1656   1.519       .  S
C208       C1463   1.530       .  S
C209       C1472   1.467       .  S
C210       C1492   1.469       .  S
O211        C224   1.274       .  A
O211       Co219   2.000       .  S
O212        C225   1.277       .  A
O212       Co220   2.013       .  S
O213        C226   1.268       .  A
O213       Co221   1.982       .  S
O214        C227   1.265       .  A
O214       Co222   1.981       .  S
O215        C227   1.269       .  A
O215       Co220   1.978       .  S
O216        C226   1.271       .  A
O216       Co219   1.980       .  S
O217        C224   1.282       .  A
O217       Co222   2.073       .  S
O218        C225   1.281       .  A
O218       Co221   2.068       .  S
Co219       O223   2.108       .  S
Co220       O223   2.109       .  S
Co221       O223   2.117       .  S
Co222       O223   2.112       .  S
C224       C1459   1.523       .  S
C225       C1467   1.529       .  S
C226       C1525   1.467       .  S
C227       C1482   1.467       .  S
C228        C229   1.397       .  A
C228        C233   1.400       .  A
C228       C1440   1.465       .  S
C229        C230   1.392       .  A
C229       C1450   1.460       .  S
C230        C231   1.388       .  A
C230       C1879   1.463       .  S
C231        C232   1.393       .  A
C231       C1420   1.461       .  S
C232        C233   1.399       .  A
C232       C1410   1.460       .  S
C233       C1430   1.465       .  S
O234        C242   1.267       .  A
O234       Co254   2.019       .  S
O235        C243   1.269       .  A
O235       Co255   2.025       .  S
O236        C244   1.276       .  A
O236       Co256   1.970       .  S
O237        C245   1.277       .  A
O237       Co257   1.975       .  S
O238        C244   1.277       .  A
O238       Co255   1.995       .  S
O239        C245   1.275       .  A
O239       Co254   1.989       .  S
O240        C243   1.277       .  A
O240       Co257   2.027       .  S
O241        C242   1.274       .  A
O241       Co256   2.015       .  S
C242       C1848   1.498       .  S
C243       C1701   1.509       .  S
C244       C1380   1.463       .  S
C245       C1390   1.463       .  S
O246        C259   1.277       .  A
O246       Co254   2.021       .  S
O247        C260   1.276       .  A
O247       Co255   2.023       .  S
O248        C261   1.277       .  A
O248       Co256   2.000       .  S
O249        C262   1.277       .  A
O249       Co257   1.994       .  S
O250        C262   1.275       .  A
O250       Co255   1.967       .  S
O251        C261   1.276       .  A
O251       Co254   1.970       .  S
O252        C259   1.269       .  A
O252       Co257   2.026       .  S
O253        C260   1.264       .  A
O253       Co256   2.014       .  S
Co254       O258   2.098       .  S
Co255       O258   2.097       .  S
Co256       O258   2.099       .  S
Co257       O258   2.101       .  S
C259       C1375   1.505       .  S
C260       C1371   1.499       .  S
C261       C1453   1.464       .  S
C262       C1400   1.460       .  S
O263        C271   1.274       .  A
O263       Co283   2.003   1_655  S
O264        C272   1.272       .  A
O264       Co284   2.000   1_455  S
O265        C273   1.267       .  A
O265       Co285   1.978       .  S
O266        C274   1.268       .  A
O266       Co286   1.995       .  S
O267        C273   1.268       .  A
O267       Co284   1.971       .  S
O268        C274   1.267       .  A
O268       Co283   1.974       .  S
O269        C272   1.280       .  A
O269       Co286   2.065       .  S
O270        C271   1.284       .  A
O270       Co285   2.079       .  S
C271       C1793   1.528       .  S
C272       C1337   1.520       .  S
C273       C1352   1.460       .  S
C274       C1365   1.471       .  S
O275        C288   1.279       .  A
O275       Co283   2.063       .  S
O276        C289   1.275       .  A
O276       Co284   2.047       .  S
O277        C290   1.270   1_655  A
O277       Co285   1.977       .  S
O278        C291   1.265   1_455  A
O278       Co286   1.961       .  S
O279        C291   1.270       .  A
O279       Co284   1.999       .  S
O280        C290   1.268       .  A
O280       Co283   1.985       .  S
O281        C288   1.276       .  A
O281       Co286   2.014       .  S
O282        C289   1.284       .  A
O282       Co285   2.050       .  S
Co283       O287   2.107       .  S
Co284       O287   2.105   1_655  S
Co285       O287   2.121   1_655  S
Co286       O287   2.111       .  S
C288       C1334   1.530       .  S
C289       C1330   1.532       .  S
C290       C1777   1.468       .  S
C291       C1342   1.464       .  S
C292        C293   1.398       .  A
C292        C297   1.392       .  A
C292       C1310   1.468       .  S
C293        C294   1.397       .  A
C293       C1293   1.456       .  S
C294        C295   1.397       .  A
C294       C1362   1.469       .  S
C295        C296   1.397       .  A
C295       C1280   1.463       .  S
C296        C297   1.391       .  A
C296       C1323   1.457       .  S
C297       C1303   1.467       .  S
O298        C306   1.270       .  A
O298       Co318   1.990   1_556  S
O299        C307   1.266       .  A
O299       Co319   1.980   1_554  S
O300        C308   1.269       .  A
O300       Co320   1.985       .  S
O301        C309   1.268       .  A
O301       Co321   1.981       .  S
O302        C308   1.270       .  A
O302       Co319   1.973       .  S
O303        C309   1.269       .  A
O303       Co318   1.974       .  S
O304        C307   1.279       .  A
O304       Co321   2.061       .  S
O305        C306   1.281       .  A
O305       Co320   2.065       .  S
C306       C1839   1.514       .  S
C307       C1245   1.505       .  S
C308       C1270   1.462       .  S
C309       C1320   1.461       .  S
O310        C323   1.272       .  A
O310       Co318   2.037       .  S
O311        C324   1.267       .  A
O311       Co319   2.024       .  S
O312        C325   1.270   1_556  A
O312       Co320   1.968       .  S
O313        C326   1.269   1_554  A
O313       Co321   1.962       .  S
O314        C326   1.275       .  A
O314       Co319   2.012       .  S
O315        C325   1.272       .  A
O315       Co318   1.997       .  S
O316        C323   1.280       .  A
O316       Co321   2.038       .  S
O317        C324   1.282       .  A
O317       Co320   2.045       .  S
Co318       O322   2.101       .  S
Co319       O322   2.103   1_556  S
Co320       O322   2.112   1_556  S
Co321       O322   2.114       .  S
C323       C1241   1.520       .  S
C324       C1238   1.517       .  S
C325       C1250   1.466       .  S
C326       C1260   1.470       .  S
C327        C328   1.399       .  A
C327        C332   1.398       .  A
C327       C1198   1.459       .  S
C328        C329   1.395       .  A
C328       C1211   1.468       .  S
C329        C330   1.393       .  A
C329       C1859   1.458       .  S
C330        C331   1.391       .  A
C330       C1273   1.463       .  S
C331        C332   1.395       .  A
C331       C1218   1.461       .  S
C332       C1228   1.465       .  S
O333        C341   1.284       .  A
O333       Co353   2.081       .  S
O334        C342   1.282       .  A
O334       Co354   2.069       .  S
O335        C343   1.264       .  A
O335       Co355   1.968       .  S
O336        C344   1.265       .  A
O336       Co356   1.972       .  S
O337        C343   1.267       .  A
O337       Co354   1.992       .  S
O338        C344   1.264       .  A
O338       Co353   1.980       .  S
O339        C342   1.278       .  A
O339       Co356   2.014       .  S
O340        C341   1.274       .  A
O340       Co355   2.003       .  S
C341       C1161   1.529       .  S
C342       C1169   1.528       .  S
C343       C1188   1.466       .  S
C344       C1178   1.463       .  S
O345        C358   1.275       .  A
O345       Co353   2.008       .  S
O346        C359   1.277       .  A
O346       Co354   2.013       .  S
O347        C360   1.267       .  A
O347       Co355   1.996       .  S
O348        C361   1.264       .  A
O348       Co356   1.979       .  S
O349        C361   1.267       .  A
O349       Co354   1.978       .  S
O350        C360   1.262       .  A
O350       Co353   1.964       .  S
O351        C358   1.285       .  A
O351       Co356   2.082       .  S
O352        C359   1.281       .  A
O352       Co355   2.065       .  S
Co353       O357   2.110       .  S
Co354       O357   2.112       .  S
Co355       O357   2.114       .  S
Co356       O357   2.112       .  S
C358       C1174   1.534       .  S
C359       C1166   1.527       .  S
C360       C1433   1.467       .  S
C361       C1231   1.468       .  S
O362        C370   1.279       .  A
O362       Co382   2.024   1_565  S
O363        C371   1.271       .  A
O363       Co383   2.001   1_545  S
O364        C372   1.273       .  A
O364       Co384   2.010       .  S
O365        C373   1.272       .  A
O365       Co385   1.992       .  S
O366        C372   1.265       .  A
O366       Co383   1.954       .  S
O367        C373   1.274       .  A
O367       Co382   1.982       .  S
O368        C371   1.277       .  A
O368       Co385   2.057       .  S
O369        C370   1.271       .  A
O369       Co384   2.031       .  S
C370       C1660   1.507       .  S
C371       C1137   1.516       .  S
C372       C1587   1.465       .  S
C373       C1313   1.470       .  S
O374        C387   1.273       .  A
O374       Co382   2.033       .  S
O375        C388   1.276       .  A
O375       Co383   2.051       .  S
O376        C389   1.271   1_565  A
O376       Co384   1.974       .  S
O377        C390   1.271   1_545  A
O377       Co385   1.977       .  S
O378        C390   1.270       .  A
O378       Co383   1.994       .  S
O379        C389   1.271       .  A
O379       Co382   1.991       .  S
O380        C387   1.277       .  A
O380       Co385   2.023       .  S
O381        C388   1.272       .  A
O381       Co384   2.002       .  S
Co382       O386   2.111   1_545  S
Co383       O386   2.101       .  S
Co384       O386   2.109       .  S
Co385       O386   2.114   1_545  S
C387       C1133   1.508       .  S
C388       C1129   1.516       .  S
C389       C1142   1.466       .  S
C390       C1152   1.471       .  S
C391        C392   1.395       .  A
C391        C396   1.401       .  A
C391       C1191   1.465       .  S
C392        C393   1.394   1_545  A
C392       C1110   1.465       .  S
C393        C394   1.395       .  A
C393       C1090   1.458       .  S
C394        C395   1.393       .  A
C394       C1120   1.460       .  S
C395        C396   1.395   1_565  A
C395       C1155   1.470       .  S
C396       C1100   1.455       .  S
O397        C405   1.277       .  A
O397       Co417   2.025       .  S
O398        C406   1.273       .  A
O398       Co418   2.004       .  S
O399        C407   1.272       .  A
O399       Co419   2.002       .  S
O400        C408   1.273       .  A
O400       Co420   1.988       .  S
O401        C407   1.269       .  A
O401       Co418   1.962       .  S
O402        C408   1.272       .  A
O402       Co417   1.972       .  S
O403        C406   1.276       .  A
O403       Co420   2.051       .  S
O404        C405   1.270       .  A
O404       Co419   2.031       .  S
C405       C1540   1.508       .  S
C406       C1065   1.516       .  S
C407       C1070   1.465       .  S
C408       C1123   1.461       .  S
O409        C422   1.272       .  A
O409       Co417   2.033       .  S
O410        C423   1.274       .  A
O410       Co418   2.041       .  S
O411        C424   1.269       .  A
O411       Co419   1.962       .  S
O412        C425   1.273       .  A
O412       Co420   1.977       .  S
O413        C425   1.271       .  A
O413       Co418   1.994       .  S
O414        C424   1.273       .  A
O414       Co417   1.995       .  S
O415        C422   1.277       .  A
O415       Co420   2.026       .  S
O416        C423   1.270       .  A
O416       Co419   1.994       .  S
Co417       O421   2.109       .  S
Co418       O421   2.100       .  S
Co419       O421   2.099       .  S
Co420       O421   2.110       .  S
C422       C1130   1.509       .  S
C423       C1061   1.505       .  S
C424       C1577   1.461       .  S
C425       C1080   1.470       .  S
O426        C434   1.279       .  A
O426       Co446   2.036       .  S
O427        C435   1.279       .  A
O427       Co447   2.042       .  S
O428        C436   1.275       .  A
O428       Co448   2.007       .  S
O429        C437   1.276       .  A
O429       Co449   2.010       .  S
O430        C436   1.267   1_545  A
O430       Co447   1.951       .  S
O431        C437   1.269   1_565  A
O431       Co446   1.961       .  S
O432        C435   1.269       .  A
O432       Co449   2.030       .  S
O433        C434   1.269       .  A
O433       Co448   2.030       .  S
C434       C1460   1.516       .  S
C435       C1165   1.520       .  S
C436       C1052   1.461       .  S
C437       C1113   1.467       .  S
O438        C451   1.277       .  A
O438       Co446   2.052       .  S
O439        C452   1.280       .  A
O439       Co447   2.068       .  S
O440        C453   1.269       .  A
O440       Co448   1.970       .  S
O441        C454   1.270       .  A
O441       Co449   1.974       .  S
O442        C454   1.269       .  A
O442       Co447   1.984       .  S
O443        C453   1.271       .  A
O443       Co446   1.991       .  S
O444        C451   1.266       .  A
O444       Co449   1.983   1_565  S
O445        C452   1.267       .  A
O445       Co448   1.985   1_545  S
Co446       O450   2.113   1_565  S
Co447       O450   2.111       .  S
Co448       O450   2.101   1_565  S
Co449       O450   2.099       .  S
C451       C1037   1.503       .  S
C452       C1033   1.513       .  S
C453       C1042   1.463       .  S
C454       C1413   1.463       .  S
C455        C456   1.394   1_545  A
C455        C460   1.393       .  A
C455       C1145   1.463       .  S
C456        C457   1.397   1_554  A
C456       C1688   1.458       .  S
C457        C458   1.398       .  A
C457       C1495   1.467       .  S
C458        C459   1.398   1_565  A
C458       C1055   1.459       .  S
C459        C460   1.394   1_556  A
C459       C1014   1.464       .  S
C460       C1024   1.461       .  S
O461        C469   1.274       .  A
O461       Co481   2.014       .  S
O462        C470   1.270       .  A
O462       Co482   1.997       .  S
O463        C471   1.274       .  A
O463       Co483   2.000       .  S
O464        C472   1.271       .  A
O464       Co484   1.993       .  S
O465        C471   1.270       .  A
O465       Co482   1.966       .  S
O466        C472   1.270       .  A
O466       Co481   1.967       .  S
O467        C470   1.275       .  A
O467       Co484   2.050       .  S
O468        C469   1.269       .  A
O468       Co483   2.023       .  S
C469       C1246   1.497       .  S
C470        C989   1.510       .  S
C471        C994   1.464       .  S
C472       C1027   1.464       .  S
O473        C486   1.275       .  A
O473       Co481   2.049       .  S
O474        C487   1.268       .  A
O474       Co482   2.023       .  S
O475        C488   1.273       .  A
O475       Co483   1.978       .  S
O476        C489   1.266       .  A
O476       Co484   1.953       .  S
O477        C489   1.273       .  A
O477       Co482   2.005       .  S
O478        C488   1.273       .  A
O478       Co481   1.991       .  S
O479        C486   1.272       .  A
O479       Co484   2.006       .  S
O480        C487   1.275       .  A
O480       Co483   2.011       .  S
Co481       O485   2.104       .  S
Co482       O485   2.102       .  S
Co483       O485   2.109       .  S
Co484       O485   2.101       .  S
C486       C1134   1.517       .  S
C487        C986   1.494       .  S
C488       C1300   1.467       .  S
C489       C1004   1.461       .  S
O490        C498   1.272       .  A
O490       Co510   2.039       .  S
O491        C499   1.271       .  A
O491       Co511   2.036       .  S
O492        C500   1.271       .  A
O492       Co512   1.964       .  S
O493        C501   1.273       .  A
O493       Co513   1.970       .  S
O494        C500   1.274       .  A
O494       Co511   1.997       .  S
O495        C501   1.273       .  A
O495       Co510   1.985       .  S
O496        C499   1.281       .  A
O496       Co513   2.039       .  S
O497        C498   1.279       .  A
O497       Co512   2.041       .  S
C498       C1333   1.525       .  S
C499       C1170   1.521       .  S
C500       C1201   1.463       .  S
C501       C1290   1.461       .  S
O502        C515   1.276       .  A
O502       Co510   2.018       .  S
O503        C516   1.269       .  A
O503       Co511   1.995       .  S
O504        C517   1.273       .  A
O504       Co512   1.993       .  S
O505        C518   1.271       .  A
O505       Co513   1.989       .  S
O506        C518   1.270       .  A
O506       Co511   1.963       .  S
O507        C517   1.274       .  A
O507       Co510   1.979       .  S
O508        C515   1.274       .  A
O508       Co513   2.040       .  S
O509        C516   1.277       .  A
O509       Co512   2.056       .  S
Co510       O514   2.105       .  S
Co511       O514   2.094       .  S
Co512       O514   2.113       .  S
Co513       O514   2.113       .  S
C515       C1138   1.509       .  S
C516        C981   1.513       .  S
C517       C1757   1.468       .  S
C518       C1103   1.459       .  S
C519        C520   1.396       .  A
C519        C524   1.395       .  A
C519       C1813   1.458       .  S
C520        C521   1.394       .  A
C520        C952   1.461       .  S
C521        C522   1.396       .  A
C521       C1083   1.467       .  S
C522        C523   1.395       .  A
C522        C972   1.456       .  S
C523        C524   1.391       .  A
C523        C962   1.462       .  S
C524       C1635   1.465       .  S
O525        C533   1.270       .  A
O525       Co545   2.028       .  S
O526        C534   1.275       .  A
O526       Co546   2.051       .  S
O527        C535   1.274       .  A
O527       Co547   1.971       .  S
O528        C536   1.269       .  A
O528       Co548   1.959       .  S
O529        C535   1.273       .  A
O529       Co546   1.988       .  S
O530        C536   1.274       .  A
O530       Co545   1.999       .  S
O531        C534   1.266       .  A
O531       Co548   1.983       .  S
O532        C533   1.273       .  A
O532       Co547   2.007       .  S
C533       C1062   1.496       .  S
C534        C985   1.503       .  S
C535        C922   1.459       .  S
C536        C932   1.460       .  S
O537        C550   1.278       .  A
O537       Co545   2.031       .  S
O538        C551   1.279       .  A
O538       Co546   2.037       .  S
O539        C552   1.275       .  A
O539       Co547   1.990       .  S
O540        C553   1.275       .  A
O540       Co548   2.003       .  S
O541        C553   1.273       .  A
O541       Co546   1.968       .  S
O542        C552   1.275       .  A
O542       Co545   1.971       .  S
O543        C550   1.266       .  A
O543       Co548   2.020       .  S
O544        C551   1.268       .  A
O544       Co547   2.023       .  S
Co545       O549   2.107       .  S
Co546       O549   2.109       .  S
Co547       O549   2.101       .  S
Co548       O549   2.090       .  S
C550        C913   1.507       .  S
C551        C918   1.512       .  S
C552        C975   1.462       .  S
C553        C942   1.467       .  S
C554        C555   1.392       .  A
C554        C559   1.393       .  A
C554       C1355   1.459       .  S
C555        C556   1.394       .  A
C555       C1823   1.461       .  S
C556        C557   1.399       .  A
C556        C894   1.463       .  S
C557        C558   1.397       .  A
C557       C1007   1.461       .  S
C558        C559   1.395       .  A
C558        C945   1.463       .  S
C559        C904   1.460       .  S
C560        C561   1.393       .  A
C560        C565   1.396       .  A
C560        C874   1.461       .  S
C561        C562   1.396       .  A
C561       C1737   1.469       .  S
C562        C563   1.395       .  A
C562       C1403   1.456       .  S
C563        C564   1.398       .  A
C563        C884   1.468       .  S
C564        C565   1.398       .  A
C564       C1485   1.464       .  S
C565       C1045   1.462       .  S
O566        C574   1.273       .  A
O566       Co586   2.004   1_565  S
O567        C575   1.277       .  A
O567       Co587   2.021   1_545  S
O568        C576   1.270       .  A
O568       Co588   1.983       .  S
O569        C577   1.273       .  A
O569       Co589   2.009       .  S
O570        C576   1.271       .  A
O570       Co587   1.974       .  S
O571        C577   1.267       .  A
O571       Co586   1.963       .  S
O572        C575   1.270       .  A
O572       Co589   2.029       .  S
O573        C574   1.280       .  A
O573       Co588   2.068       .  S
C574       C1664   1.524       .  S
C575        C982   1.505       .  S
C576       C1505   1.461       .  S
C577       C1208   1.469       .  S
O578        C591   1.276       .  A
O578       Co586   2.054       .  S
O579        C592   1.276       .  A
O579       Co587   2.045       .  S
O580        C593   1.269   1_565  A
O580       Co588   1.972       .  S
O581        C594   1.269   1_545  A
O581       Co589   1.966       .  S
O582        C594   1.270       .  A
O582       Co587   1.988       .  S
O583        C593   1.271       .  A
O583       Co586   1.994       .  S
O584        C591   1.270       .  A
O584       Co589   1.996       .  S
O585        C592   1.278       .  A
O585       Co588   2.030       .  S
Co586       O590   2.105   1_545  S
Co587       O590   2.111       .  S
Co588       O590   2.115       .  S
Co589       O590   2.102   1_545  S
C591       C1844   1.513       .  S
C592       C1697   1.519       .  S
C593       C1899   1.467       .  S
C594       C1767   1.461       .  S
O595        C603   1.266       .  A
O595       Co615   1.981       .  S
O596        C604   1.269       .  A
O596       Co616   1.991       .  S
O597        C605   1.268       .  A
O597       Co617   1.995       .  S
O598        C606   1.271       .  A
O598       Co618   1.999       .  S
O599        C605   1.263       .  A
O599       Co616   1.960       .  S
O600        C606   1.266       .  A
O600       Co615   1.964       .  S
O601        C604   1.281       .  A
O601       Co618   2.065       .  S
O602        C603   1.280       .  A
O602       Co617   2.061       .  S
C603       C1372   1.507       .  S
C604        C914   1.515       .  S
C605        C864   1.463       .  S
C606        C854   1.465       .  S
O607        C620   1.271       .  A
O607       Co615   2.035       .  S
O608        C621   1.279       .  A
O608       Co616   2.068       .  S
O609        C622   1.267       .  A
O609       Co617   1.963       .  S
O610        C623   1.270       .  A
O610       Co618   1.973       .  S
O611        C623   1.269       .  A
O611       Co616   1.983       .  S
O612        C622   1.271       .  A
O612       Co615   2.002       .  S
O613        C620   1.281       .  A
O613       Co618   2.045       .  S
O614        C621   1.278       .  A
O614       Co617   2.024       .  S
Co615       O619   2.103       .  S
Co616       O619   2.104       .  S
Co617       O619   2.111       .  S
Co618       O619   2.119       .  S
C620       C1162   1.525       .  S
C621       C1329   1.537       .  S
C622       C1443   1.466       .  S
C623        C907   1.463       .  S
C624        C625   1.396       .  A
C624        C629   1.397       .  A
C624        C867   1.462       .  S
C625        C626   1.394   1_655  A
C625       C1383   1.459       .  S
C626        C627   1.397       .  A
C626       C1727   1.469       .  S
C627        C628   1.397       .  A
C627       C1557   1.456       .  S
C628        C629   1.397   1_455  A
C628        C844   1.465       .  S
C629       C1345   1.464       .  S
O630        C638   1.271       .  A
O630       Co650   2.033       .  S
O631        C639   1.270       .  A
O631       Co651   2.032       .  S
O632        C640   1.271       .  A
O632       Co652   1.970       .  S
O633        C641   1.269       .  A
O633       Co653   1.967       .  S
O634        C640   1.274       .  A
O634       Co651   2.003       .  S
O635        C641   1.273       .  A
O635       Co650   1.997       .  S
O636        C639   1.282       .  A
O636       Co653   2.047   1_556  S
O637        C638   1.282       .  A
O637       Co652   2.046   1_554  S
C638       C1614   1.524       .  S
C639       C1464   1.522       .  S
C640        C887   1.470       .  S
C641        C965   1.465       .  S
O642        C655   1.269       .  A
O642       Co650   1.989       .  S
O643        C656   1.269       .  A
O643       Co651   1.990       .  S
O644        C657   1.269       .  A
O644       Co652   1.988       .  S
O645        C658   1.269       .  A
O645       Co653   1.985       .  S
O646        C658   1.271   1_556  A
O646       Co651   1.977       .  S
O647        C657   1.270   1_554  A
O647       Co650   1.976       .  S
O648        C655   1.282       .  A
O648       Co653   2.071       .  S
O649        C656   1.279       .  A
O649       Co652   2.059       .  S
Co650       O654   2.100       .  S
Co651       O654   2.101   1_556  S
Co652       O654   2.119   1_556  S
Co653       O654   2.118       .  S
C655        C917   1.518       .  S
C656       C1376   1.512       .  S
C657        C824   1.467       .  S
C658        C834   1.466       .  S
C659        C660   1.394       .  A
C659        C664   1.394       .  A
C659        C925   1.459       .  S
C660        C661   1.394   1_554  A
C660        C837   1.464       .  S
C661        C662   1.395       .  A
C661       C1475   1.465       .  S
C662        C663   1.399       .  A
C662        C814   1.457       .  S
C663        C664   1.395   1_556  A
C663       C1263   1.468       .  S
C664        C997   1.463       .  S
O665        C673   1.274       .  A
O665       Co685   2.009   1_556  S
O666        C674   1.277       .  A
O666       Co686   2.016   1_554  S
O667        C675   1.270       .  A
O667       Co687   1.981       .  S
O668        C676   1.273       .  A
O668       Co688   2.008       .  S
O669        C675   1.274       .  A
O669       Co686   1.979       .  S
O670        C676   1.266       .  A
O670       Co685   1.955       .  S
O671        C674   1.270       .  A
O671       Co688   2.028       .  S
O672        C673   1.279       .  A
O672       Co687   2.065       .  S
C673       C1852   1.527       .  S
C674        C990   1.501       .  S
C675       C1423   1.464       .  S
C676        C897   1.464       .  S
O677        C690   1.277       .  A
O677       Co685   2.055       .  S
O678        C691   1.271       .  A
O678       Co686   2.026       .  S
O679        C692   1.272   1_556  A
O679       Co687   1.977       .  S
O680        C693   1.270   1_554  A
O680       Co688   1.970       .  S
O681        C693   1.273       .  A
O681       Co686   1.997       .  S
O682        C692   1.270       .  A
O682       Co685   1.989       .  S
O683        C690   1.270       .  A
O683       Co688   1.997       .  S
O684        C691   1.279       .  A
O684       Co687   2.028       .  S
Co685       O689   2.102       .  S
Co686       O689   2.109   1_556  S
Co687       O689   2.109   1_556  S
Co688       O689   2.106       .  S
C690       C1798   1.514       .  S
C691       C1034   1.507       .  S
C692       C1886   1.469       .  S
C693       C1017   1.466       .  S
O694        C702   1.271       .  A
O694       Co714   2.033       .  S
O695        C703   1.281       .  A
O695       Co715   2.077       .  S
O696        C704   1.273       .  A
O696       Co716   1.970       .  S
O697        C705   1.268       .  A
O697       Co717   1.960       .  S
O698        C704   1.272       .  A
O698       Co715   1.985       .  S
O699        C705   1.273       .  A
O699       Co714   1.998       .  S
O700        C703   1.270       .  A
O700       Co717   1.997       .  S
O701        C702   1.274       .  A
O701       Co716   2.012       .  S
C702       C1536   1.504       .  S
C703       C1237   1.524       .  S
C704       C1221   1.459       .  S
C705       C1515   1.461       .  S
O706        C719   1.278       .  A
O706       Co714   2.030       .  S
O707        C720   1.283       .  A
O707       Co715   2.056       .  S
O708        C721   1.275       .  A
O708       Co716   1.990       .  S
O709        C722   1.271       .  A
O709       Co717   1.987       .  S
O710        C722   1.272       .  A
O710       Co715   1.973       .  S
O711        C721   1.274       .  A
O711       Co714   1.971       .  S
O712        C719   1.273       .  A
O712       Co717   2.043       .  S
O713        C720   1.270       .  A
O713       Co716   2.032       .  S
Co714       O718   2.115       .  S
Co715       O718   2.117       .  S
Co716       O718   2.102       .  S
Co717       O718   2.094       .  S
C719       C1468   1.524       .  S
C720       C1173   1.530       .  S
C721        C807   1.462       .  S
C722        C817   1.463       .  S
O723        C731   1.275       .  A
O723       Co743   2.047       .  S
O724        C732   1.269       .  A
O724       Co744   2.027       .  S
O725        C733   1.271       .  A
O725       Co745   1.967       .  S
O726        C734   1.274       .  A
O726       Co746   1.974       .  S
O727        C733   1.273       .  A
O727       Co744   1.995       .  S
O728        C734   1.275       .  A
O728       Co743   1.997       .  S
O729        C732   1.273       .  A
O729       Co746   2.009       .  S
O730        C731   1.271       .  A
O730       Co745   2.000       .  S
C731       C1802   1.512       .  S
C732       C1038   1.496       .  S
C733       C1093   1.461       .  S
C734       C1747   1.467       .  S
O735        C748   1.280       .  A
O735       Co743   2.043       .  S
O736        C749   1.276       .  A
O736       Co744   2.023       .  S
O737        C750   1.274       .  A
O737       Co745   1.997       .  S
O738        C751   1.276       .  A
O738       Co746   1.997       .  S
O739        C751   1.273       .  A
O739       Co744   1.967       .  S
O740        C750   1.274       .  A
O740       Co743   1.970       .  S
O741        C748   1.268       .  A
O741       Co746   2.025       .  S
O742        C749   1.269       .  A
O742       Co745   2.029       .  S
Co743       O747   2.108       .  S
Co744       O747   2.108       .  S
Co745       O747   2.096       .  S
Co746       O747   2.101       .  S
C748       C1709   1.518       .  S
C749       C1066   1.507       .  S
C750        C955   1.466       .  S
C751        C877   1.463       .  S
O752        C760   1.271       .  A
O752       Co772   2.001       .  S
O753        C761   1.279       .  A
O753       Co773   2.032       .  S
O754        C762   1.269       .  A
O754       Co774   1.989       .  S
O755        C763   1.272       .  A
O755       Co775   2.010       .  S
O756        C762   1.269       .  A
O756       Co773   1.972       .  S
O757        C763   1.261       .  A
O757       Co772   1.950       .  S
O758        C761   1.272       .  A
O758       Co775   2.034       .  S
O759        C760   1.280       .  A
O759       Co774   2.068       .  S
C760       C1618   1.522       .  S
C761       C1338   1.514       .  S
C762        C794   1.466       .  S
C763        C847   1.463       .  S
O764        C777   1.281       .  A
O764       Co772   2.070       .  S
O765        C778   1.281       .  A
O765       Co773   2.067       .  S
O766        C779   1.267       .  A
O766       Co774   1.973       .  S
O767        C780   1.269       .  A
O767       Co775   1.975       .  S
O768        C780   1.269       .  A
O768       Co773   1.986       .  S
O769        C779   1.266       .  A
O769       Co772   1.984       .  S
O770        C777   1.271       .  A
O770       Co775   1.997       .  S
O771        C778   1.276       .  A
O771       Co774   2.010       .  S
Co772       O776   2.106       .  S
Co773       O776   2.116       .  S
Co774       O776   2.109       .  S
Co775       O776   2.108       .  S
C777       C1532   1.521       .  S
C778       C1242   1.526       .  S
C779       C1594   1.465       .  S
C780       C1283   1.466       .  S
C781        C782   1.398       .  A
C781        C786   1.395       .  A
C781        C804   1.458       .  S
C782        C783   1.396       .  A
C782       C1547   1.468       .  S
C783        C784   1.400       .  A
C783       C1073   1.465       .  S
C784        C785   1.398       .  A
C784        C935   1.460       .  S
C785        C786   1.393       .  A
C785        C857   1.467       .  S
C786       C1181   1.462       .  S
C787        C788   1.393   1_655  A
C787        C792   1.390       .  A
C787       C1393   1.458       .  S
C788        C789   1.396   1_556  A
C788       C1869   1.460       .  S
C789        C790   1.397       .  A
C789       C1253   1.463       .  S
C790        C791   1.397   1_455  A
C790        C797   1.463       .  S
C791        C792   1.391   1_554  A
C791       C1625   1.456       .  S
C792        C827   1.466       .  S
C793        C794   1.410       .  A
C793        C798   1.391       .  A
C793        H799   1.083       .  S
C794        C795   1.399       .  A
C795        C796   1.392       .  A
C795        H800   1.083       .  S
C796        C797   1.402       .  A
C796        H801   1.084   1_455  S
C797        C798   1.394       .  A
C798        H802   1.084       .  S
C803        C804   1.404       .  A
C803        C808   1.393       .  A
C803        H809   1.084       .  S
C804        C805   1.390       .  A
C805        C806   1.385       .  A
C805        H810   1.084       .  S
C806        C807   1.410       .  A
C806        H811   1.081       .  S
C807        C808   1.399       .  A
C808        H812   1.083       .  S
C813        C814   1.404       .  A
C813        C818   1.392       .  A
C813        H819   1.084       .  S
C814        C815   1.391       .  A
C815        C816   1.386       .  A
C815        H820   1.084       .  S
C816        C817   1.410       .  A
C816        H821   1.083       .  S
C817        C818   1.398       .  A
C818        H822   1.083       .  S
C823        C824   1.411       .  A
C823        C828   1.391       .  A
C823        H829   1.083       .  S
C824        C825   1.399       .  A
C825        C826   1.394       .  A
C825        H830   1.083   1_556  S
C826        C827   1.404       .  A
C826        H831   1.084   1_556  S
C827        C828   1.393       .  A
C828        H832   1.084       .  S
C833        C834   1.411       .  A
C833        C838   1.391       .  A
C833        H839   1.083       .  S
C834        C835   1.398       .  A
C835        C836   1.393       .  A
C835        H840   1.083   1_554  S
C836        C837   1.405       .  A
C836        H841   1.084   1_554  S
C837        C838   1.393       .  A
C838        H842   1.084       .  S
C843        C844   1.397       .  A
C843        C848   1.391       .  A
C843        H849   1.083       .  S
C844        C845   1.399       .  A
C845        C846   1.388       .  A
C845        H850   1.084   1_455  S
C846        C847   1.402       .  A
C846        H851   1.083       .  S
C847        C848   1.406       .  A
C848        H852   1.083       .  S
C853        C854   1.401       .  A
C853        C858   1.391       .  A
C853        H859   1.083       .  S
C854        C855   1.408       .  A
C855        C856   1.393       .  A
C855        H860   1.084       .  S
C856        C857   1.397       .  A
C856        H861   1.084       .  S
C857        C858   1.401       .  A
C858        H862   1.084       .  S
C863        C864   1.408       .  A
C863        C868   1.391       .  A
C863        H869   1.083       .  S
C864        C865   1.400       .  A
C865        C866   1.389       .  A
C865        H870   1.083       .  S
C866        C867   1.401       .  A
C866        H871   1.084       .  S
C867        C868   1.395       .  A
C868        H872   1.084       .  S
C873        C874   1.403       .  A
C873        C878   1.392       .  A
C873        H879   1.083       .  S
C874        C875   1.392       .  A
C875        C876   1.387       .  A
C875        H880   1.083       .  S
C876        C877   1.409       .  A
C876        H881   1.082       .  S
C877        C878   1.399       .  A
C878        H882   1.084       .  S
C883        C884   1.403       .  A
C883        C888   1.395       .  A
C883        H889   1.084       .  S
C884        C885   1.395       .  A
C885        C886   1.390       .  A
C885        H890   1.084       .  S
C886        C887   1.409       .  A
C886        H891   1.083       .  S
C887        C888   1.401       .  A
C888        H892   1.083       .  S
C893        C894   1.396       .  A
C893        C898   1.391       .  A
C893        H899   1.084       .  S
C894        C895   1.401       .  A
C895        C896   1.388       .  A
C895        H900   1.084       .  S
C896        C897   1.400       .  A
C896        H901   1.083       .  S
C897        C898   1.408       .  A
C898        H902   1.083       .  S
C903        C904   1.393       .  A
C903        C908   1.390       .  A
C903        H909   1.084       .  S
C904        C905   1.403       .  A
C905        C906   1.391       .  A
C905        H910   1.084       .  S
C906        C907   1.398       .  A
C906        H911   1.083       .  S
C907        C908   1.410       .  A
C908        H912   1.084       .  S
C913        C914   1.354       .  D
C913        H915   1.085       .  S
C914        H916   1.086       .  S
C917        C918   1.355       .  D
C917        H919   1.086       .  S
C918        H920   1.085       .  S
C921        C922   1.410       .  A
C921        C926   1.389       .  A
C921        H927   1.083       .  S
C922        C923   1.397       .  A
C923        C924   1.390       .  A
C923        H928   1.083       .  S
C924        C925   1.403       .  A
C924        H929   1.084       .  S
C925        C926   1.393       .  A
C926        H930   1.084       .  S
C931        C932   1.399       .  A
C931        C936   1.389       .  A
C931        H937   1.083       .  S
C932        C933   1.408       .  A
C933        C934   1.387       .  A
C933        H938   1.083       .  S
C934        C935   1.394       .  A
C934        H939   1.084       .  S
C935        C936   1.402       .  A
C936        H940   1.084       .  S
C941        C942   1.400       .  A
C941        C946   1.393       .  A
C941        H947   1.083       .  S
C942        C943   1.410       .  A
C943        C944   1.388       .  A
C943        H948   1.083       .  S
C944        C945   1.394       .  A
C944        H949   1.084       .  S
C945        C946   1.403       .  A
C946        H950   1.084       .  S
C951        C952   1.403       .  A
C951        C956   1.392       .  A
C951        H957   1.084       .  S
C952        C953   1.393       .  A
C953        C954   1.388       .  A
C953        H958   1.084       .  S
C954        C955   1.411       .  A
C954        H959   1.083       .  S
C955        C956   1.399       .  A
C956        H960   1.083       .  S
C961        C962   1.403       .  A
C961        C966   1.391       .  A
C961        H967   1.084       .  S
C962        C963   1.393       .  A
C963        C964   1.389       .  A
C963        H968   1.084       .  S
C964        C965   1.409       .  A
C964        H969   1.083       .  S
C965        C966   1.400       .  A
C966        H970   1.083       .  S
C971        C972   1.390       .  A
C971        C976   1.386       .  A
C971        H977   1.084       .  S
C972        C973   1.403       .  A
C973        C974   1.391       .  A
C973        H978   1.083       .  S
C974        C975   1.398       .  A
C974        H979   1.083       .  S
C975        C976   1.411       .  A
C976        H980   1.082       .  S
C981        C982   1.357       .  D
C981        H983   1.086       .  S
C982        H984   1.086       .  S
C985        C986   1.351       .  D
C985        H987   1.086       .  S
C986        H988   1.087       .  S
C989        C990   1.357       .  D
C989        H991   1.086       .  S
C990        H992   1.085       .  S
C993        C994   1.410       .  A
C993        C998   1.390       .  A
C993        H999   1.083       .  S
C994        C995   1.399       .  A
C995        C996   1.390       .  A
C995       H1000   1.083       .  S
C996        C997   1.403       .  A
C996       H1001   1.084   1_554  S
C997        C998   1.393       .  A
C998       H1002   1.084       .  S
C1003      C1004   1.407       .  A
C1003      C1008   1.389       .  A
C1003      H1009   1.083       .  S
C1004      C1005   1.400       .  A
C1005      C1006   1.387       .  A
C1005      H1010   1.083       .  S
C1006      C1007   1.400       .  A
C1006      H1011   1.084       .  S
C1007      C1008   1.395       .  A
C1008      H1012   1.083       .  S
C1013      C1014   1.393       .  A
C1013      C1018   1.389       .  A
C1013      H1019   1.084       .  S
C1014      C1015   1.403       .  A
C1015      C1016   1.392       .  A
C1015      H1020   1.084   1_546  S
C1016      C1017   1.400       .  A
C1016      H1021   1.084   1_556  S
C1017      C1018   1.410       .  A
C1018      H1022   1.084       .  S
C1023      C1024   1.402   1_556  A
C1023      C1028   1.390   1_556  A
C1023      H1029   1.084       .  S
C1024      C1025   1.394       .  A
C1025      C1026   1.390       .  A
C1025      H1030   1.084       .  S
C1026      C1027   1.410       .  A
C1026      H1031   1.083       .  S
C1027      C1028   1.399       .  A
C1028      H1032   1.083       .  S
C1033      C1034   1.353       .  D
C1033      H1035   1.086       .  S
C1034      H1036   1.085       .  S
C1037      C1038   1.350       .  D
C1037      H1039   1.086       .  S
C1038      H1040   1.086       .  S
C1041      C1042   1.399       .  A
C1041      C1046   1.391       .  A
C1041      H1047   1.083       .  S
C1042      C1043   1.409       .  A
C1043      C1044   1.389       .  A
C1043      H1048   1.082       .  S
C1044      C1045   1.393       .  A
C1044      H1049   1.084       .  S
C1045      C1046   1.403       .  A
C1046      H1050   1.084       .  S
C1051      C1052   1.407       .  A
C1051      C1056   1.389       .  A
C1051      H1057   1.083       .  S
C1052      C1053   1.401       .  A
C1053      C1054   1.387       .  A
C1053      H1058   1.083   1_565  S
C1054      C1055   1.400       .  A
C1054      H1059   1.084   1_565  S
C1055      C1056   1.395       .  A
C1056      H1060   1.083       .  S
C1061      C1062   1.354       .  D
C1061      H1063   1.086       .  S
C1062      H1064   1.086       .  S
C1065      C1066   1.359       .  D
C1065      H1067   1.085       .  S
C1066      H1068   1.085       .  S
C1069      C1070   1.400       .  A
C1069      C1074   1.390       .  A
C1069      H1075   1.083       .  S
C1070      C1071   1.408       .  A
C1071      C1072   1.390       .  A
C1071      H1076   1.083       .  S
C1072      C1073   1.396       .  A
C1072      H1077   1.083       .  S
C1073      C1074   1.401       .  A
C1074      H1078   1.084       .  S
C1079      C1080   1.411       .  A
C1079      C1084   1.392       .  A
C1079      H1085   1.084       .  S
C1080      C1081   1.399       .  A
C1081      C1082   1.393       .  A
C1081      H1086   1.083       .  S
C1082      C1083   1.404       .  A
C1082      H1087   1.084       .  S
C1083      C1084   1.394       .  A
C1084      H1088   1.084       .  S
C1089      C1090   1.392       .  A
C1089      C1094   1.387       .  A
C1089      H1095   1.084       .  S
C1090      C1091   1.403       .  A
C1091      C1092   1.389       .  A
C1091      H1096   1.084   1_565  S
C1092      C1093   1.398       .  A
C1092      H1097   1.083       .  S
C1093      C1094   1.410       .  A
C1094      H1098   1.084       .  S
C1099      C1100   1.392       .  A
C1099      C1104   1.386       .  A
C1099      H1105   1.084       .  S
C1100      C1101   1.402       .  A
C1101      C1102   1.387       .  A
C1101      H1106   1.084   1_545  S
C1102      C1103   1.398       .  A
C1102      H1107   1.083       .  S
C1103      C1104   1.410       .  A
C1104      H1108   1.083       .  S
C1109      C1110   1.402       .  A
C1109      C1114   1.391       .  A
C1109      H1115   1.084   1_545  S
C1110      C1111   1.395       .  A
C1111      C1112   1.390       .  A
C1111      H1116   1.084       .  S
C1112      C1113   1.408       .  A
C1112      H1117   1.083       .  S
C1113      C1114   1.401       .  A
C1114      H1118   1.083   1_545  S
C1119      C1120   1.403       .  A
C1119      C1124   1.392       .  A
C1119      H1125   1.084       .  S
C1120      C1121   1.393       .  A
C1121      C1122   1.390       .  A
C1121      H1126   1.084       .  S
C1122      C1123   1.410       .  A
C1122      H1127   1.083       .  S
C1123      C1124   1.398       .  A
C1124      H1128   1.084       .  S
C1129      C1130   1.359       .  D
C1129      H1131   1.085       .  S
C1130      H1132   1.086       .  S
C1133      C1134   1.359       .  D
C1133      H1135   1.085       .  S
C1134      H1136   1.086       .  S
C1137      C1138   1.359       .  D
C1137      H1139   1.086       .  S
C1138      H1140   1.086       .  S
C1141      C1142   1.411       .  A
C1141      C1146   1.389       .  A
C1141      H1147   1.084       .  S
C1142      C1143   1.399       .  A
C1143      C1144   1.392       .  A
C1143      H1148   1.083   1_545  S
C1144      C1145   1.403       .  A
C1144      H1149   1.084   1_545  S
C1145      C1146   1.393       .  A
C1146      H1150   1.084       .  S
C1151      C1152   1.410       .  A
C1151      C1156   1.393       .  A
C1151      H1157   1.083       .  S
C1152      C1153   1.399       .  A
C1153      C1154   1.394       .  A
C1153      H1158   1.083   1_565  S
C1154      C1155   1.405       .  A
C1154      H1159   1.084   1_565  S
C1155      C1156   1.395       .  A
C1156      H1160   1.083       .  S
C1161      C1162   1.363       .  D
C1161      H1163   1.085       .  S
C1162      H1164   1.086       .  S
C1165      C1166   1.364       .  D
C1165      H1167   1.086       .  S
C1166      H1168   1.085       .  S
C1169      C1170   1.365       .  D
C1169      H1171   1.085       .  S
C1170      H1172   1.085       .  S
C1173      C1174   1.364       .  D
C1173      H1175   1.086       .  S
C1174      H1176   1.085       .  S
C1177      C1178   1.410       .  A
C1177      C1182   1.390       .  A
C1177      H1183   1.083       .  S
C1178      C1179   1.399       .  A
C1179      C1180   1.389       .  A
C1179      H1184   1.083       .  S
C1180      C1181   1.403       .  A
C1180      H1185   1.084       .  S
C1181      C1182   1.393       .  A
C1182      H1186   1.084       .  S
C1187      C1188   1.401       .  A
C1187      C1192   1.391       .  A
C1187      H1193   1.083       .  S
C1188      C1189   1.408       .  A
C1189      C1190   1.391       .  A
C1189      H1194   1.083       .  S
C1190      C1191   1.396       .  A
C1190      H1195   1.084       .  S
C1191      C1192   1.401       .  A
C1192      H1196   1.084       .  S
C1197      C1198   1.402       .  A
C1197      C1202   1.391       .  A
C1197      H1203   1.084       .  S
C1198      C1199   1.393       .  A
C1199      C1200   1.387       .  A
C1199      H1204   1.084       .  S
C1200      C1201   1.409       .  A
C1200      H1205   1.083       .  S
C1201      C1202   1.400       .  A
C1202      H1206   1.083       .  S
C1207      C1208   1.401       .  A
C1207      C1212   1.392       .  A
C1207      H1213   1.083       .  S
C1208      C1209   1.408       .  A
C1209      C1210   1.392       .  A
C1209      H1214   1.083       .  S
C1210      C1211   1.397       .  A
C1210      H1215   1.083       .  S
C1211      C1212   1.402       .  A
C1212      H1216   1.084       .  S
C1217      C1218   1.393       .  A
C1217      C1222   1.389       .  A
C1217      H1223   1.083       .  S
C1218      C1219   1.404       .  A
C1219      C1220   1.390       .  A
C1219      H1224   1.084       .  S
C1220      C1221   1.397       .  A
C1220      H1225   1.084       .  S
C1221      C1222   1.410       .  A
C1222      H1226   1.083       .  S
C1227      C1228   1.403       .  A
C1227      C1232   1.392       .  A
C1227      H1233   1.084       .  S
C1228      C1229   1.394       .  A
C1229      C1230   1.391       .  A
C1229      H1234   1.084       .  S
C1230      C1231   1.411       .  A
C1230      H1235   1.083       .  S
C1231      C1232   1.399       .  A
C1232      H1236   1.083       .  S
C1237      C1238   1.359       .  D
C1237      H1239   1.086       .  S
C1238      H1240   1.085       .  S
C1241      C1242   1.363       .  D
C1241      H1243   1.086       .  S
C1242      H1244   1.085       .  S
C1245      C1246   1.350       .  D
C1245      H1247   1.086       .  S
C1246      H1248   1.085       .  S
C1249      C1250   1.400       .  A
C1249      C1254   1.391       .  A
C1249      H1255   1.083   1_554  S
C1250      C1251   1.410       .  A
C1251      C1252   1.389       .  A
C1251      H1256   1.083       .  S
C1252      C1253   1.394       .  A
C1252      H1257   1.084       .  S
C1253      C1254   1.402       .  A
C1254      H1258   1.084   1_554  S
C1259      C1260   1.402       .  A
C1259      C1264   1.393       .  A
C1259      H1265   1.083   1_556  S
C1260      C1261   1.408       .  A
C1261      C1262   1.392       .  A
C1261      H1266   1.083       .  S
C1262      C1263   1.396       .  A
C1262      H1267   1.083       .  S
C1263      C1264   1.402       .  A
C1264      H1268   1.084   1_556  S
C1269      C1270   1.410       .  A
C1269      C1274   1.391       .  A
C1269      H1275   1.084       .  S
C1270      C1271   1.399       .  A
C1271      C1272   1.392       .  A
C1271      H1276   1.083       .  S
C1272      C1273   1.403       .  A
C1272      H1277   1.083       .  S
C1273      C1274   1.393       .  A
C1274      H1278   1.084       .  S
C1279      C1280   1.394       .  A
C1279      C1284   1.391       .  A
C1279      H1285   1.084       .  S
C1280      C1281   1.403       .  A
C1281      C1282   1.392       .  A
C1281      H1286   1.083       .  S
C1282      C1283   1.399       .  A
C1282      H1287   1.083       .  S
C1283      C1284   1.410       .  A
C1284      H1288   1.083       .  S
C1289      C1290   1.411       .  A
C1289      C1294   1.385       .  A
C1289      H1295   1.083       .  S
C1290      C1291   1.397       .  A
C1291      C1292   1.390       .  A
C1291      H1296   1.083       .  S
C1292      C1293   1.404       .  A
C1292      H1297   1.084       .  S
C1293      C1294   1.390       .  A
C1294      H1298   1.083       .  S
C1299      C1300   1.410       .  A
C1299      C1304   1.391       .  A
C1299      H1305   1.083       .  S
C1300      C1301   1.399       .  A
C1301      C1302   1.394       .  A
C1301      H1306   1.083       .  S
C1302      C1303   1.406       .  A
C1302      H1307   1.084       .  S
C1303      C1304   1.394       .  A
C1304      H1308   1.083       .  S
C1309      C1310   1.393       .  A
C1309      C1314   1.392       .  A
C1309      H1315   1.083       .  S
C1310      C1311   1.406       .  A
C1311      C1312   1.396       .  A
C1311      H1316   1.084       .  S
C1312      C1313   1.399       .  A
C1312      H1317   1.083       .  S
C1313      C1314   1.411       .  A
C1314      H1318   1.082       .  S
C1319      C1320   1.410       .  A
C1319      C1324   1.387       .  A
C1319      H1325   1.082       .  S
C1320      C1321   1.397       .  A
C1321      C1322   1.390       .  A
C1321      H1326   1.084       .  S
C1322      C1323   1.404       .  A
C1322      H1327   1.084       .  S
C1323      C1324   1.391       .  A
C1324      H1328   1.084       .  S
C1329      C1330   1.371       .  D
C1329      H1331   1.085       .  S
C1330      H1332   1.086       .  S
C1333      C1334   1.365       .  D
C1333      H1335   1.086       .  S
C1334      H1336   1.085       .  S
C1337      C1338   1.360       .  D
C1337      H1339   1.086       .  S
C1338      H1340   1.086       .  S
C1341      C1342   1.401       .  A
C1341      C1346   1.389       .  A
C1341      H1347   1.083   1_655  S
C1342      C1343   1.408       .  A
C1343      C1344   1.390       .  A
C1343      H1348   1.083       .  S
C1344      C1345   1.396       .  A
C1344      H1349   1.083       .  S
C1345      C1346   1.400       .  A
C1346      H1350   1.084   1_655  S
C1351      C1352   1.398       .  A
C1351      C1356   1.389       .  A
C1351      H1357   1.083       .  S
C1352      C1353   1.410       .  A
C1353      C1354   1.389       .  A
C1353      H1358   1.083       .  S
C1354      C1355   1.392       .  A
C1354      H1359   1.084       .  S
C1355      C1356   1.403       .  A
C1356      H1360   1.084       .  S
C1361      C1362   1.403       .  A
C1361      C1366   1.393       .  A
C1361      H1367   1.084       .  S
C1362      C1363   1.397       .  A
C1363      C1364   1.393       .  A
C1363      H1368   1.084       .  S
C1364      C1365   1.410       .  A
C1364      H1369   1.083       .  S
C1365      C1366   1.400       .  A
C1366      H1370   1.083       .  S
C1371      C1372   1.349       .  D
C1371      H1373   1.085       .  S
C1372      H1374   1.086       .  S
C1375      C1376   1.354       .  D
C1375      H1377   1.086       .  S
C1376      H1378   1.085       .  S
C1379      C1380   1.410       .  A
C1379      C1384   1.386       .  A
C1379      H1385   1.082       .  S
C1380      C1381   1.398       .  A
C1381      C1382   1.392   1_655  A
C1381      H1386   1.083       .  S
C1382      C1383   1.403   1_455  A
C1382      H1387   1.083       .  S
C1383      C1384   1.391       .  A
C1384      H1388   1.084       .  S
C1389      C1390   1.398       .  A
C1389      C1394   1.393   1_655  A
C1389      H1395   1.083       .  S
C1390      C1391   1.411       .  A
C1391      C1392   1.384       .  A
C1391      H1396   1.082       .  S
C1392      C1393   1.389       .  A
C1392      H1397   1.084       .  S
C1393      C1394   1.405   1_655  A
C1394      H1398   1.083       .  S
C1399      C1400   1.398       .  A
C1399      C1404   1.390       .  A
C1399      H1405   1.083       .  S
C1400      C1401   1.410       .  A
C1401      C1402   1.384       .  A
C1401      H1406   1.082       .  S
C1402      C1403   1.390       .  A
C1402      H1407   1.083       .  S
C1403      C1404   1.403       .  A
C1404      H1408   1.083       .  S
C1409      C1410   1.404       .  A
C1409      C1414   1.391       .  A
C1409      H1415   1.084       .  S
C1410      C1411   1.392       .  A
C1411      C1412   1.389       .  A
C1411      H1416   1.084       .  S
C1412      C1413   1.410       .  A
C1412      H1417   1.083       .  S
C1413      C1414   1.398       .  A
C1414      H1418   1.083       .  S
C1419      C1420   1.392       .  A
C1419      C1424   1.389       .  A
C1419      H1425   1.083       .  S
C1420      C1421   1.405       .  A
C1421      C1422   1.393       .  A
C1421      H1426   1.084       .  S
C1422      C1423   1.397       .  A
C1422      H1427   1.083       .  S
C1423      C1424   1.411       .  A
C1424      H1428   1.083       .  S
C1429      C1430   1.397       .  A
C1429      C1434   1.392       .  A
C1429      H1435   1.083       .  S
C1430      C1431   1.401       .  A
C1431      C1432   1.391       .  A
C1431      H1436   1.084       .  S
C1432      C1433   1.401       .  A
C1432      H1437   1.083       .  S
C1433      C1434   1.408       .  A
C1434      H1438   1.083       .  S
C1439      C1440   1.396       .  A
C1439      C1444   1.391       .  A
C1439      H1445   1.083       .  S
C1440      C1441   1.402       .  A
C1441      C1442   1.390       .  A
C1441      H1446   1.084       .  S
C1442      C1443   1.400       .  A
C1442      H1447   1.083       .  S
C1443      C1444   1.408       .  A
C1444      H1448   1.083       .  S
C1449      C1450   1.391       .  A
C1449      C1454   1.386       .  A
C1449      H1455   1.084       .  S
C1450      C1451   1.403       .  A
C1451      C1452   1.393       .  A
C1451      H1456   1.084       .  S
C1452      C1453   1.399       .  A
C1452      H1457   1.083       .  S
C1453      C1454   1.410       .  A
C1454      H1458   1.081       .  S
C1459      C1460   1.361       .  D
C1459      H1461   1.086       .  S
C1460      H1462   1.086       .  S
C1463      C1464   1.367       .  D
C1463      H1465   1.086       .  S
C1464      H1466   1.085       .  S
C1467      C1468   1.366       .  D
C1467      H1469   1.086       .  S
C1468      H1470   1.086       .  S
C1471      C1472   1.411       .  A
C1471      C1476   1.392       .  A
C1471      H1477   1.084       .  S
C1472      C1473   1.399       .  A
C1473      C1474   1.392       .  A
C1473      H1478   1.083       .  S
C1474      C1475   1.403       .  A
C1474      H1479   1.084   1_556  S
C1475      C1476   1.395       .  A
C1476      H1480   1.083       .  S
C1481      C1482   1.411       .  A
C1481      C1486   1.390       .  A
C1481      H1487   1.083       .  S
C1482      C1483   1.398       .  A
C1483      C1484   1.391       .  A
C1483      H1488   1.083       .  S
C1484      C1485   1.404       .  A
C1484      H1489   1.084       .  S
C1485      C1486   1.394       .  A
C1486      H1490   1.084       .  S
C1491      C1492   1.400       .  A
C1491      C1496   1.392       .  A
C1491      H1497   1.083       .  S
C1492      C1493   1.409       .  A
C1493      C1494   1.392       .  A
C1493      H1498   1.083       .  S
C1494      C1495   1.396       .  A
C1494      H1499   1.084       .  S
C1495      C1496   1.402       .  A
C1496      H1500   1.084   1_556  S
C1501      C1502   1.404       .  A
C1501      C1506   1.392       .  A
C1501      H1507   1.084       .  S
C1502      C1503   1.392       .  A
C1503      C1504   1.388       .  A
C1503      H1508   1.083       .  S
C1504      C1505   1.410       .  A
C1504      H1509   1.082       .  S
C1505      C1506   1.397       .  A
C1506      H1510   1.083       .  S
C1511      C1512   1.393       .  A
C1511      C1516   1.387       .  A
C1511      H1517   1.083       .  S
C1512      C1513   1.402       .  A
C1513      C1514   1.390       .  A
C1513      H1518   1.083       .  S
C1514      C1515   1.399       .  A
C1514      H1519   1.084       .  S
C1515      C1516   1.408       .  A
C1516      H1520   1.083       .  S
C1521      C1522   1.394       .  A
C1521      C1526   1.392       .  A
C1521      H1527   1.084       .  S
C1522      C1523   1.404       .  A
C1523      C1524   1.393       .  A
C1523      H1528   1.083       .  S
C1524      C1525   1.399       .  A
C1524      H1529   1.083       .  S
C1525      C1526   1.411       .  A
C1526      H1530   1.083       .  S
C1531      C1532   1.359       .  D
C1531      H1533   1.086       .  S
C1532      H1534   1.086       .  S
C1535      C1536   1.356       .  D
C1535      H1537   1.086       .  S
C1536      H1538   1.085       .  S
C1539      C1540   1.357       .  D
C1539      H1541   1.085       .  S
C1540      H1542   1.086       .  S
C1543      C1544   1.411       .  A
C1543      C1548   1.392       .  A
C1543      H1549   1.083       .  S
C1544      C1545   1.399       .  A
C1545      C1546   1.393       .  A
C1545      H1550   1.083       .  S
C1546      C1547   1.405       .  A
C1546      H1551   1.084       .  S
C1547      C1548   1.395       .  A
C1548      H1552   1.084       .  S
C1553      C1554   1.408       .  A
C1553      C1558   1.388       .  A
C1553      H1559   1.083       .  S
C1554      C1555   1.399       .  A
C1555      C1556   1.386       .  A
C1555      H1560   1.083       .  S
C1556      C1557   1.400       .  A
C1556      H1561   1.084       .  S
C1557      C1558   1.393       .  A
C1558      H1562   1.084       .  S
C1563      C1564   1.401       .  A
C1563      C1568   1.388       .  A
C1563      H1569   1.083       .  S
C1564      C1565   1.407       .  A
C1565      C1566   1.390       .  A
C1565      H1570   1.083       .  S
C1566      C1567   1.396       .  A
C1566      H1571   1.083       .  S
C1567      C1568   1.400       .  A
C1568      H1572   1.084       .  S
C1573      C1574   1.393       .  A
C1573      C1578   1.388       .  A
C1573      H1579   1.084       .  S
C1574      C1575   1.402       .  A
C1575      C1576   1.388       .  A
C1575      H1580   1.084       .  S
C1576      C1577   1.399       .  A
C1576      H1581   1.083       .  S
C1577      C1578   1.409       .  A
C1578      H1582   1.083       .  S
C1583      C1584   1.397       .  A
C1583      C1588   1.391       .  A
C1583      H1589   1.083       .  S
C1584      C1585   1.400       .  A
C1585      C1586   1.388       .  A
C1585      H1590   1.084       .  S
C1586      C1587   1.401       .  A
C1586      H1591   1.083       .  S
C1587      C1588   1.407       .  A
C1588      H1592   1.083       .  S
C1593      C1594   1.399       .  A
C1593      C1598   1.391       .  A
C1593      H1599   1.083       .  S
C1594      C1595   1.410       .  A
C1595      C1596   1.389       .  A
C1595      H1600   1.083       .  S
C1596      C1597   1.394       .  A
C1596      H1601   1.084       .  S
C1597      C1598   1.403       .  A
C1598      H1602   1.084       .  S
C1603      C1604   1.393       .  A
C1603      C1608   1.390       .  A
C1603      H1609   1.083       .  S
C1604      C1605   1.403       .  A
C1605      C1606   1.391       .  A
C1605      H1610   1.083       .  S
C1606      C1607   1.398       .  A
C1606      H1611   1.083       .  S
C1607      C1608   1.409       .  A
C1608      H1612   1.082       .  S
C1613      C1614   1.364       .  D
C1613      H1615   1.086       .  S
C1614      H1616   1.086       .  S
C1617      C1618   1.359       .  D
C1617      H1619   1.086       .  S
C1618      H1620   1.086       .  S
C1621      C1622   1.398       .  A
C1621      C1626   1.388       .  A
C1621      H1627   1.084   1_655  S
C1622      C1623   1.409       .  A
C1623      C1624   1.389       .  A
C1623      H1628   1.083       .  S
C1624      C1625   1.392       .  A
C1624      H1629   1.084       .  S
C1625      C1626   1.402       .  A
C1626      H1630   1.084   1_654  S
C1631      C1632   1.400       .  A
C1631      C1636   1.392       .  A
C1631      H1637   1.083       .  S
C1632      C1633   1.410       .  A
C1633      C1634   1.391       .  A
C1633      H1638   1.084       .  S
C1634      C1635   1.394       .  A
C1634      H1639   1.084       .  S
C1635      C1636   1.403       .  A
C1636      H1640   1.084       .  S
C1641      C1642   1.402       .  A
C1641      C1646   1.390       .  A
C1641      H1647   1.083       .  S
C1642      C1643   1.407       .  A
C1643      C1644   1.392       .  A
C1643      H1648   1.083       .  S
C1644      C1645   1.398       .  A
C1644      H1649   1.083       .  S
C1645      C1646   1.400       .  A
C1646      H1650   1.084       .  S
C1651      C1652   1.353       .  D
C1651      H1653   1.086       .  S
C1652      H1654   1.085       .  S
C1655      C1656   1.360       .  D
C1655      H1657   1.086       .  S
C1656      H1658   1.086       .  S
C1659      C1660   1.358       .  D
C1659      H1661   1.085       .  S
C1660      H1662   1.085       .  S
C1663      C1664   1.361       .  D
C1663      H1665   1.086       .  S
C1664      H1666   1.086       .  S
C1667      C1668   1.397       .  A
C1667      C1672   1.391       .  A
C1667      H1673   1.084       .  S
C1668      C1669   1.410       .  A
C1669      C1670   1.389       .  A
C1669      H1674   1.082       .  S
C1670      C1671   1.392       .  A
C1670      H1675   1.083       .  S
C1671      C1672   1.404       .  A
C1672      H1676   1.084       .  S
C1677      C1678   1.406       .  A
C1677      C1682   1.388       .  A
C1677      H1683   1.083       .  S
C1678      C1679   1.401       .  A
C1679      C1680   1.388       .  A
C1679      H1684   1.083       .  S
C1680      C1681   1.400       .  A
C1680      H1685   1.084       .  S
C1681      C1682   1.395       .  A
C1682      H1686   1.084       .  S
C1687      C1688   1.393       .  A
C1687      C1692   1.388       .  A
C1687      H1693   1.084       .  S
C1688      C1689   1.402   1_564  A
C1689      C1690   1.390   1_545  A
C1689      H1694   1.084       .  S
C1690      C1691   1.399   1_556  A
C1690      H1695   1.083       .  S
C1691      C1692   1.408       .  A
C1692      H1696   1.084       .  S
C1697      C1698   1.364       .  D
C1697      H1699   1.086       .  S
C1698      H1700   1.086       .  S
C1701      C1702   1.357       .  D
C1701      H1703   1.085       .  S
C1702      H1704   1.085       .  S
C1705      C1706   1.357       .  D
C1705      H1707   1.086       .  S
C1706      H1708   1.085       .  S
C1709      C1710   1.361       .  D
C1709      H1711   1.085       .  S
C1710      H1712   1.085       .  S
C1713      C1714   1.401       .  A
C1713      C1718   1.392       .  A
C1713      H1719   1.083       .  S
C1714      C1715   1.409       .  A
C1715      C1716   1.393       .  A
C1715      H1720   1.083       .  S
C1716      C1717   1.397       .  A
C1716      H1721   1.083       .  S
C1717      C1718   1.402       .  A
C1718      H1722   1.084       .  S
C1723      C1724   1.400       .  A
C1723      C1728   1.392       .  A
C1723      H1729   1.083   1_455  S
C1724      C1725   1.409       .  A
C1725      C1726   1.393       .  A
C1725      H1730   1.083       .  S
C1726      C1727   1.396       .  A
C1726      H1731   1.083       .  S
C1727      C1728   1.402       .  A
C1728      H1732   1.084       .  S
C1733      C1734   1.399       .  A
C1733      C1738   1.392       .  A
C1733      H1739   1.083       .  S
C1734      C1735   1.411       .  A
C1735      C1736   1.392       .  A
C1735      H1740   1.083       .  S
C1736      C1737   1.396       .  A
C1736      H1741   1.084       .  S
C1737      C1738   1.403       .  A
C1738      H1742   1.084       .  S
C1743      C1744   1.405   1_545  A
C1743      C1748   1.394   1_545  A
C1743      H1749   1.084       .  S
C1744      C1745   1.395       .  A
C1745      C1746   1.392       .  A
C1745      H1750   1.083       .  S
C1746      C1747   1.410       .  A
C1746      H1751   1.083       .  S
C1747      C1748   1.399       .  A
C1748      H1752   1.083       .  S
C1753      C1754   1.395       .  A
C1753      C1758   1.393       .  A
C1753      H1759   1.083       .  S
C1754      C1755   1.405   1_545  A
C1755      C1756   1.395   1_565  A
C1755      H1760   1.084       .  S
C1756      C1757   1.399       .  A
C1756      H1761   1.083       .  S
C1757      C1758   1.410       .  A
C1758      H1762   1.083       .  S
C1763      C1764   1.403       .  A
C1763      C1768   1.388       .  A
C1763      H1769   1.084   1_465  S
C1764      C1765   1.393       .  A
C1765      C1766   1.388       .  A
C1765      H1770   1.084       .  S
C1766      C1767   1.410       .  A
C1766      H1771   1.083       .  S
C1767      C1768   1.398       .  A
C1768      H1772   1.083   1_565  S
C1773      C1774   1.394       .  A
C1773      C1778   1.391       .  A
C1773      H1779   1.084       .  S
C1774      C1775   1.404       .  A
C1775      C1776   1.393       .  A
C1775      H1780   1.084   1_455  S
C1776      C1777   1.399       .  A
C1776      H1781   1.083   1_455  S
C1777      C1778   1.411       .  A
C1778      H1782   1.084       .  S
C1783      C1784   1.402       .  A
C1783      C1788   1.391       .  A
C1783      H1789   1.084       .  S
C1784      C1785   1.395       .  A
C1785      C1786   1.391       .  A
C1785      H1790   1.083       .  S
C1786      C1787   1.409       .  A
C1786      H1791   1.083       .  S
C1787      C1788   1.400       .  A
C1788      H1792   1.083       .  S
C1793      C1794   1.362       .  D
C1793      H1795   1.085       .  S
C1794      H1796   1.085       .  S
C1797      C1798   1.357       .  D
C1797      H1799   1.085       .  S
C1798      H1800   1.086       .  S
C1801      C1802   1.358       .  D
C1801      H1803   1.085       .  S
C1802      H1804   1.086       .  S
C1805      C1806   1.365       .  D
C1805      H1807   1.085       .  S
C1806      H1808   1.084       .  S
C1809      C1810   1.397       .  A
C1809      C1814   1.392       .  A
C1809      H1815   1.083       .  S
C1810      C1811   1.412       .  A
C1811      C1812   1.386       .  A
C1811      H1816   1.083       .  S
C1812      C1813   1.390       .  A
C1812      H1817   1.084       .  S
C1813      C1814   1.404       .  A
C1814      H1818   1.084       .  S
C1819      C1820   1.410       .  A
C1819      C1824   1.387       .  A
C1819      H1825   1.083       .  S
C1820      C1821   1.399       .  A
C1821      C1822   1.392       .  A
C1821      H1826   1.083       .  S
C1822      C1823   1.402       .  A
C1822      H1827   1.083       .  S
C1823      C1824   1.392       .  A
C1824      H1828   1.084       .  S
C1829      C1830   1.406       .  A
C1829      C1834   1.393       .  A
C1829      H1835   1.084   1_645  S
C1830      C1831   1.389       .  A
C1831      C1832   1.385       .  A
C1831      H1836   1.084       .  S
C1832      C1833   1.413       .  A
C1832      H1837   1.083       .  S
C1833      C1834   1.396       .  A
C1834      H1838   1.083   1_545  S
C1839      C1840   1.355       .  D
C1839      H1841   1.086       .  S
C1840      H1842   1.085       .  S
C1843      C1844   1.356       .  D
C1843      H1845   1.086       .  S
C1844      H1846   1.086       .  S
C1847      C1848   1.352       .  D
C1847      H1849   1.086       .  S
C1848      H1850   1.085       .  S
C1851      C1852   1.363       .  D
C1851      H1853   1.085       .  S
C1852      H1854   1.085       .  S
C1855      C1856   1.399       .  A
C1855      C1860   1.387       .  A
C1855      H1861   1.083       .  S
C1856      C1857   1.409       .  A
C1857      C1858   1.388       .  A
C1857      H1862   1.083       .  S
C1858      C1859   1.393       .  A
C1858      H1863   1.084       .  S
C1859      C1860   1.401       .  A
C1860      H1864   1.084       .  S
C1865      C1866   1.399       .  A
C1865      C1870   1.390       .  A
C1865      H1871   1.083   1_455  S
C1866      C1867   1.410       .  A
C1867      C1868   1.388       .  A
C1867      H1872   1.083       .  S
C1868      C1869   1.392       .  A
C1868      H1873   1.084       .  S
C1869      C1870   1.403       .  A
C1870      H1874   1.084   1_456  S
C1875      C1876   1.411       .  A
C1875      C1880   1.389       .  A
C1875      H1881   1.083       .  S
C1876      C1877   1.397       .  A
C1877      C1878   1.393       .  A
C1877      H1882   1.083       .  S
C1878      C1879   1.406       .  A
C1878      H1883   1.084       .  S
C1879      C1880   1.392       .  A
C1880      H1884   1.083       .  S
C1885      C1886   1.411       .  A
C1885      C1890   1.393       .  A
C1885      H1891   1.084       .  S
C1886      C1887   1.398       .  A
C1887      C1888   1.393       .  A
C1887      H1892   1.083   1_554  S
C1888      C1889   1.405       .  A
C1888      H1893   1.084   1_544  S
C1889      C1890   1.395       .  A
C1890      H1894   1.084       .  S
C1895      C1896   1.404   1_565  A
C1895      C1900   1.393       .  A
C1895      H1901   1.084   1_455  S
C1896      C1897   1.394       .  A
C1897      C1898   1.391       .  A
C1897      H1902   1.083       .  S
C1898      C1899   1.410       .  A
C1898      H1903   1.083       .  S
C1899      C1900   1.399   1_545  A
C1900      H1904   1.083       .  S
C1905      C1906   1.395       .  A
C1905      C1910   1.391       .  A
C1905      H1911   1.083       .  S
C1906      C1907   1.402       .  A
C1907      C1908   1.390       .  A
C1907      H1912   1.084   1_454  S
C1908      C1909   1.399       .  A
C1908      H1913   1.083   1_455  S
C1909      C1910   1.410       .  A
C1910      H1914   1.083       .  S
C1915      C1916   1.402       .  A
C1915      C1920   1.391       .  A
C1915      H1921   1.084   1_565  S
C1916      C1917   1.394       .  A
C1917      C1918   1.389       .  A
C1917      H1922   1.084       .  S
C1918      C1919   1.409       .  A
C1918      H1923   1.083       .  S
C1919      C1920   1.400       .  A
C1920      H1924   1.083   1_556  S
C1925      C1926   1.404   1_455  A
C1925      C1930   1.393   1_455  A
C1925      H1931   1.083   1_565  S
C1926      C1927   1.389       .  A
C1927      C1928   1.384       .  A
C1927      H1932   1.084       .  S
C1928      C1929   1.411       .  A
C1928      H1933   1.083       .  S
C1929      C1930   1.398       .  A
C1930      H1934   1.083   1_565  S
C1935      C1936   1.390       .  A
C1935      C1940   1.386       .  A
C1935      H1941   1.083       .  S
C1936      C1937   1.403       .  A
C1937      C1938   1.390       .  A
C1937      H1942   1.084   1_656  S
C1938      C1939   1.398       .  A
C1938      H1943   1.084   1_655  S
C1939      C1940   1.411       .  A
C1940      H1944   1.083       .  S
