geometry optimzed in LAMMPS
_audit_creation_date              2020-11-30 
_audit_creation_method            'lammps2cif' 
_symmetry_space_group_name_H-M    'P1' 
_symmetry_Int_Tables_number       1 
_symmetry_cell_setting            triclinic 
loop_ 
_symmetry_equiv_pos_as_xyz 
  x,y,z 
_cell_length_a                    32.38687369 
_cell_length_b                    32.24824516296379 
_cell_length_c                    32.48104058473463 
_cell_angle_alpha                 90.87958699366106 
_cell_angle_beta                  89.44207074729593 
_cell_angle_gamma                 89.96846982768156 
loop_ 
_atom_site_label 
_atom_site_type_symbol 
_atom_site_fract_x 
_atom_site_fract_y 
_atom_site_fract_z 
_atom_site_charge 
O1          O  0.54671204  0.45474836  0.01774143    -0.71200
O2          O  0.46243614  0.53127618  0.05239067    -0.71500
O3          O  0.46328822  0.45404479  0.01774241    -0.71300
O4          O  0.54612142  0.53216138  0.05217233    -0.71300
O5          O  0.54531199  0.56121991  0.99231317    -0.71300
O6          O  0.46450869  0.48172671  0.95719601    -0.71300
O7          O  0.46158892  0.55873799  0.99177898    -0.71200
O8          O  0.54768549  0.48366074  0.95782597    -0.71400
V9          V  0.50466599  0.49381434  0.03391632     1.35200
V10         V  0.50483874  0.52070044  0.97594839     1.35200
C11         C  0.56111122  0.45566563  0.98143442     0.78000
C12         C  0.44731959  0.55778126  0.02817597     0.78100
C13         C  0.45020042  0.45432479  0.98111340     0.77900
C14         C  0.55960081  0.56019760  0.02842467     0.77900
O15         O  0.44610559  0.96044262  0.53805821    -0.71200
O16         O  0.54079862  0.96039819  0.46261185    -0.71500
O17         O  0.52868441  0.95653844  0.54525907    -0.71300
O18         O  0.45786679  0.96079785  0.45522614    -0.71300
O19         O  0.45716864  0.02816387  0.45696602    -0.71300
O20         O  0.53273170  0.02371953  0.54912655    -0.71300
O21         O  0.53960335  0.02764982  0.46650202    -0.71200
O22         O  0.45000033  0.02767112  0.54011952    -0.71400
V23         V  0.49335902  0.96085062  0.50034172     1.35200
V24         V  0.49478373  0.02545187  0.50315500     1.35200
C25         C  0.43257627  0.99506471  0.55217633     0.78000
C26         C  0.55594193  0.99514220  0.45172229     0.78100
C27         C  0.54342005  0.98839676  0.56250522     0.77900
C28         C  0.44528393  0.99425739  0.44027505     0.77900
O29         O  0.95824630  0.53752572  0.55638688    -0.71200
O30         O  0.96046883  0.46293191  0.46716727    -0.71500
O31         O  0.95947020  0.45427399  0.54987397    -0.71300
O32         O  0.96286443  0.54606774  0.47369409    -0.71300
O33         O  0.02975176  0.54442490  0.47789553    -0.71300
O34         O  0.02656241  0.45468448  0.54895169    -0.71300
O35         O  0.02748847  0.46144526  0.46595043    -0.71200
O36         O  0.02515587  0.53782668  0.56033629    -0.71400
V37         V  0.96159270  0.50018178  0.51184206     1.35200
V38         V  0.02593121  0.49955594  0.51328407     1.35200
C39         C  0.99026854  0.55074008  0.57388889     0.78000
C40         C  0.99327852  0.44950959  0.45059142     0.78100
C41         C  0.99346860  0.43925392  0.56227626     0.77900
C42         C  0.99792483  0.56044105  0.46292786     0.77900
N43         N  0.42082233  0.42393950  0.96586334    -0.02900
C44         C  0.43666005  0.39333348  0.94064413    -0.00300
C45         C  0.41993532  0.39630907  0.90168489    -0.23200
C46         C  0.38973989  0.42551009  0.90406673    -0.23400
C47         C  0.38811785  0.43934866  0.94455920    -0.00400
H48         H  0.42267923  0.37437278  0.87635984     0.13300
H49         H  0.36628677  0.42923764  0.88090695     0.13400
N50         N  0.41542955  0.58638360  0.04260292    -0.02900
C51         C  0.42917470  0.61954720  0.06504923    -0.00300
C52         C  0.42176970  0.61261104  0.10651769    -0.23200
C53         C  0.39343199  0.58130565  0.10817961    -0.23400
C54         C  0.38648135  0.56898800  0.06772395    -0.00400
H55         H  0.42748681  0.63423046  0.13165137     0.13300
H56         H  0.37425327  0.57531245  0.13485963     0.13400
N57         N  0.39879743  0.99931120  0.58154598    -0.02900
C58         C  0.40937834  0.01993040  0.61701662    -0.00300
C59         C  0.38982956  0.05776890  0.62105142    -0.23200
C60         C  0.36277529  0.05962990  0.58977031    -0.23400
C61         C  0.36641587  0.02254232  0.56797990    -0.00400
H62         H  0.39017801  0.07847133  0.64761547     0.13300
H63         H  0.33794070  0.08201019  0.58797684     0.13400
O64         O  0.46168273  0.94569486  0.00535568    -0.71200
O65         O  0.46788772  0.06159808  0.98579233    -0.71500
O66         O  0.46625920  0.01430778  0.05302164    -0.71300
O67         O  0.46280231  0.99296453  0.93766275    -0.71300
O68         O  0.39690030  0.00559343  0.93914088    -0.71300
O69         O  0.39946730  0.01030479  0.05621706    -0.71300
O70         O  0.40184968  0.06703548  0.99598153    -0.71200
O71         O  0.39506459  0.94830037  0.99901645    -0.71400
V72         V  0.46346275  0.00369538  0.99548966     1.35200
V73         V  0.39940532  0.00764258  0.99756045     1.35200
C74         C  0.42747461  0.92691048  0.00406748     0.78000
C75         C  0.43624320  0.08452690  0.98891741     0.78100
C76         C  0.43348508  0.01501717  0.07454053     0.77900
C77         C  0.42931435  0.99751794  0.91853553     0.77900
N78         N  0.41810193  0.99181981  0.40530237    -0.02900
C79         C  0.43488860  0.97238869  0.37136194    -0.00300
C80         C  0.41627850  0.93420588  0.36433431    -0.23200
C81         C  0.38330818  0.93243513  0.39018391    -0.23400
C82         C  0.38346231  0.96900461  0.41276216    -0.00400
H83         H  0.42041086  0.91395445  0.33771742     0.13300
H84         H  0.35806251  0.91060697  0.38737023     0.13400
N85         N  0.59004511  0.42445028  0.96598543    -0.02900
C86         C  0.57209699  0.39343590  0.94328057    -0.00300
C87         C  0.57859749  0.40121923  0.90177589    -0.23200
C88         C  0.60976037  0.42961640  0.89983170    -0.23400
C89         C  0.61981052  0.43950886  0.94024879    -0.00400
H90         H  0.56827607  0.38311718  0.87558252     0.13300
H91         H  0.62717586  0.43575306  0.87207168     0.13400
N92         N  0.99648728  0.40561057  0.59079335    -0.02900
C93         C  0.02033728  0.41403171  0.62434253    -0.00300
C94         C  0.05450655  0.38851258  0.62573472    -0.23200
C95         C  0.05047322  0.36076631  0.59439850    -0.23400
C96         C  0.01381481  0.37014501  0.57500198    -0.00400
H97         H  0.07649835  0.38625262  0.65049806     0.13300
H98         H  0.06865839  0.33274561  0.59070069     0.13400
O99         O  0.06381094  0.38577131  0.99994899    -0.71200
O100        O  0.94515405  0.38663108  0.00197087    -0.71500
O101        O  0.00398900  0.38704107  0.94304398    -0.71300
O102        O  0.00527547  0.38466037  0.06009222    -0.71300
O103        O  0.00952625  0.45187293  0.06206676    -0.71300
O104        O  0.00081202  0.45430645  0.94592792    -0.71300
O105        O  0.94687456  0.45369324  0.00737344    -0.71200
O106        O  0.06360224  0.45313406  0.99995315    -0.71400
V107        V  0.00456038  0.38719474  0.00151913     1.35200
V108        V  0.00516264  0.45186038  0.00391147     1.35200
C109        C  0.08374200  0.41962177  0.99911859     0.78000
C110        C  0.92594012  0.42094309  0.00315715     0.78100
C111        C  0.00107183  0.42118823  0.92478271     0.77900
C112        C  0.00911442  0.41788988  0.08089964     0.77900
N113        N  0.98963302  0.42128257  0.41549879    -0.02900
C114        C  0.96977097  0.43848574  0.38278636    -0.00300
C115        C  0.92866819  0.42595959  0.38243369    -0.23200
C116        C  0.92576678  0.39349517  0.40827843    -0.23400
C117        C  0.96462651  0.38845684  0.42473875    -0.00400
H118        H  0.90593436  0.43177179  0.35904734     0.13300
H119        H  0.90083240  0.37121011  0.40753020     0.13400
N120        N  0.00362511  0.59276382  0.43316769    -0.02900
C121        C  0.02565488  0.57931686  0.39959840    -0.00300
C122        C  0.06461823  0.59673398  0.39833223    -0.23200
C123        C  0.06532466  0.62591654  0.42864851    -0.23400
C124        C  0.02649013  0.62570431  0.44699646    -0.00400
H125        H  0.08719308  0.59414137  0.37362016     0.13300
H126        H  0.08827913  0.65023103  0.43039970     0.13400
N127        N  0.59054025  0.99987840  0.42330587    -0.02900
C128        C  0.57998671  0.02303436  0.38991608    -0.00300
C129        C  0.59462747  0.06319599  0.39358172    -0.23200
C130        C  0.62066235  0.06355864  0.42570626    -0.23400
C131        C  0.62161003  0.02331246  0.44031465    -0.00400
H132        H  0.59334846  0.08737142  0.37087334     0.13300
H133        H  0.64269127  0.08819145  0.43112383     0.13400
O134        O  0.00206452  0.06003943  0.38094649    -0.71200
O135        O  0.99963341  0.94294936  0.39135562    -0.71500
O136        O  0.94235578  0.00267547  0.38917922    -0.71300
O137        O  0.05979901  0.99998945  0.38335853    -0.71300
O138        O  0.06228531  0.00696060  0.44997954    -0.71300
O139        O  0.94565430  0.00959733  0.45574267    -0.71300
O140        O  0.00160485  0.94996417  0.45794159    -0.71200
O141        O  0.00617707  0.06665089  0.44750853    -0.71400
V142        V  0.00110984  0.00159150  0.38744492     1.35200
V143        V  0.00390808  0.00820205  0.45144518     1.35200
C144        C  0.00494935  0.08314501  0.41254168     0.78000
C145        C  0.99885596  0.92664686  0.42648810     0.78100
C146        C  0.92416396  0.00523757  0.42374656     0.77900
C147        C  0.08087069  0.00369353  0.41578810     0.77900
N148        N  0.58934196  0.59056398  0.04315581    -0.02900
C149        C  0.57497671  0.62682972  0.06044087    -0.00300
C150        C  0.59038963  0.63193465  0.09974208    -0.23200
C151        C  0.61821337  0.60093763  0.10538208    -0.23400
C152        C  0.61908166  0.57733826  0.06942848    -0.00400
H153        H  0.58803002  0.65947711  0.11910048     0.13300
H154        H  0.64043407  0.60056458  0.13003824     0.13400
N155        N  0.98512507  0.58079789  0.60711386    -0.02900
C156        C  0.96155216  0.56752063  0.63958636    -0.00300
C157        C  0.92351941  0.58742317  0.64068690    -0.23200
C158        C  0.92546335  0.61781916  0.61257953    -0.23400
C159        C  0.96423449  0.61517153  0.59492109    -0.00400
H160        H  0.90043136  0.58664719  0.66494506     0.13300
H161        H  0.90414230  0.64360708  0.61094367     0.13400
N162        N  0.57316798  0.98258105  0.59477610    -0.02900
C163        C  0.55916237  0.96108620  0.62815284    -0.00300
C164        C  0.57578397  0.92141326  0.62812975    -0.23200
C165        C  0.60571219  0.92050587  0.59875700    -0.23400
C166        C  0.60582371  0.95930626  0.58125929    -0.00400
H167        H  0.57390300  0.89899635  0.65250971     0.13300
H168        H  0.62957045  0.89705012  0.59630819     0.13400
O169        O  0.62177466  0.00671944  0.06287384    -0.71200
O170        O  0.61742065  0.00746309  0.94576873    -0.71500
O171        O  0.62040167  0.06644449  0.00517733    -0.71300
O172        O  0.61852694  0.94764673  0.00293920    -0.71300
O173        O  0.55185635  0.94953670  0.99833423    -0.71300
O174        O  0.55427401  0.06699350  0.01624506    -0.71300
O175        O  0.55110187  0.01650163  0.94982968    -0.71200
O176        O  0.55514576  0.99938627  0.06498063    -0.71400
V177        V  0.61842465  0.00710252  0.00432075     1.35200
V178        V  0.55429781  0.00814643  0.00735397     1.35200
C179        C  0.58910072  0.00115971  0.08371811     0.78000
C180        C  0.58342314  0.01326731  0.92788128     0.78100
C181        C  0.58754160  0.08712670  0.01145736     0.77900
C182        C  0.58469428  0.92819194  0.99906691     0.77900
O183        O  0.98240910  0.05832731  0.60432021    -0.71200
O184        O  0.99312962  0.94126795  0.61290947    -0.71500
O185        O  0.04664496  0.00469190  0.60302171    -0.71300
O186        O  0.92959210  0.99524000  0.61391059    -0.71300
O187        O  0.92489613  0.99162746  0.54721432    -0.71300
O188        O  0.04133601  0.99530132  0.53691694    -0.71300
O189        O  0.98621856  0.93495553  0.54660923    -0.71200
O190        O  0.97953320  0.05194699  0.53778793    -0.71400
V191        V  0.98797024  0.99974490  0.60731990     1.35200
V192        V  0.98316727  0.99357353  0.54347213     1.35200
C193        C  0.97807488  0.07498907  0.56960845     0.78000
C194        C  0.99119077  0.91826924  0.58111372     0.78100
C195        C  0.06389528  0.00048679  0.56803506     0.77900
C196        C  0.90744923  0.99325318  0.58208952     0.77900
O197        O  0.00441054  0.53900787  0.96166282    -0.71200
O198        O  0.00170433  0.54018376  0.07852475    -0.71500
O199        O  0.94481801  0.53685156  0.02035637    -0.71300
O200        O  0.06147510  0.54170553  0.02015503    -0.71300
O201        O  0.05929942  0.60901869  0.02095896    -0.71300
O202        O  0.94080853  0.60392999  0.02040388    -0.71300
O203        O  0.99919842  0.60755111  0.07883281    -0.71200
O204        O  0.00098768  0.60618121  0.96159829    -0.71400
V205        V  0.00303611  0.54084957  0.02008880     1.35200
V206        V  0.00014541  0.60547460  0.02031878     1.35200
C207        C  0.00366196  0.57226916  0.94162426     0.78000
C208        C  0.99951330  0.57404545  0.09846180     0.78100
C209        C  0.92271595  0.56905523  0.02170163     0.77900
C210        C  0.08043450  0.57586330  0.02061566     0.77900
C211        C  0.70298377  0.02112205  0.58152529    -0.27100
C212        C  0.73077037  0.98983051  0.56875893     0.02500
C213        C  0.71494706  0.95382608  0.54932468     0.30600
C214        C  0.67248634  0.94832906  0.54591863    -0.18900
C215        C  0.64500565  0.97634245  0.56489439    -0.28300
C216        C  0.66024706  0.01476706  0.57920988     0.44700
C217        C  0.77566064  0.99361658  0.57744151     0.05800
O218        O  0.74052893  0.92269339  0.53537613    -0.56800
H219        H  0.66118359  0.91933107  0.53303615     0.18800
O220        O  0.63410975  0.04454368  0.59493125    -0.63500
H221        H  0.71415861  0.04927953  0.59612557     0.17200
C222        C  0.79838100  0.02921561  0.56678712     0.29500
C223        C  0.84150557  0.02881876  0.56899738    -0.24400
C224        C  0.86225597  0.99451357  0.58472206    -0.23700
C225        C  0.83947097  0.96101119  0.59990714     0.40900
C226        C  0.79652068  0.96042102  0.59572257    -0.26100
O227        O  0.77900790  0.06398429  0.55293253    -0.58000
H228        H  0.85885201  0.05532922  0.55820131     0.16600
O229        O  0.85900892  0.92774563  0.61674624    -0.59500
H230        H  0.77951931  0.93366062  0.60632943     0.15000
H231        H  0.62476960  0.06018953  0.57073893     0.46900
H232        H  0.78000933  0.08427064  0.57618057     0.42300
H233        H  0.85931771  0.93367466  0.64674657     0.45700
H234        H  0.73627767  0.89932259  0.55452750     0.37200
C235        C  0.53897107  0.96884637  0.74224623    -0.27100
C236        C  0.56050314  0.00495461  0.75266975     0.02500
C237        C  0.57516875  0.03074539  0.72127363     0.30600
C238        C  0.57076062  0.01850144  0.67985294    -0.18900
C239        C  0.55137534  0.98077038  0.66932286    -0.28300
C240        C  0.53306461  0.95736506  0.70111846     0.44700
C241        C  0.56962489  0.01313638  0.79649767     0.05800
O242        O  0.59646041  0.06629658  0.73077838    -0.56800
H243        H  0.58483181  0.03722350  0.65626558     0.18800
O244        O  0.51181389  0.92152988  0.69248241    -0.63500
H245        H  0.52798950  0.94874972  0.76628384     0.17200
C246        C  0.54128679  0.03435300  0.82217906     0.29500
C247        C  0.54678199  0.03507758  0.86481340    -0.24400
C248        C  0.58085380  0.01539442  0.88251340    -0.23700
C249        C  0.61036441  0.99583562  0.85650481     0.40900
C250        C  0.60447331  0.99469578  0.81382210    -0.26100
O251        O  0.50716522  0.05295949  0.80613927    -0.58000
H252        H  0.52382180  0.05045017  0.88414510     0.16600
O253        O  0.64397325  0.97604888  0.87248379    -0.59500
H254        H  0.62629475  0.97792000  0.79429960     0.15000
H255        H  0.48457895  0.93068582  0.68234316     0.46900
H256        H  0.51546473  0.08216467  0.80147964     0.42300
H257        H  0.63483333  0.94711321  0.87697709     0.45700
H258        H  0.57497577  0.08724801  0.73754588     0.37200
C259        C  0.02593653  0.53679214  0.83155860    -0.27100
C260        C  0.00405755  0.56606981  0.80907531     0.02500
C261        C  0.98398563  0.59892652  0.83016444     0.30600
C262        C  0.98512252  0.60151784  0.87329695    -0.18900
C263        C  0.00569649  0.57119937  0.89599457    -0.28300
C264        C  0.02706221  0.53923088  0.87462174     0.44700
C265        C  0.99792212  0.55947568  0.76435891     0.05800
O266        O  0.96162436  0.62756863  0.80894680    -0.56800
H267        H  0.96858989  0.62638687  0.88906817     0.18800
O268        O  0.04874404  0.50988615  0.89558433    -0.63500
H269        H  0.04124846  0.51123878  0.81591307     0.17200
C270        C  0.02699232  0.57239905  0.73474180     0.29500
C271        C  0.01729896  0.57008236  0.69261729    -0.24400
C272        C  0.97876567  0.55467465  0.67978814    -0.23700
C273        C  0.95205657  0.53725325  0.70960934     0.40900
C274        C  0.96095926  0.54160620  0.75133162    -0.26100
O275        O  0.06388560  0.58928284  0.74674764    -0.58000
H276        H  0.03842045  0.58348779  0.67046385     0.16600
O277        O  0.91479570  0.52020272  0.69879121    -0.59500
H278        H  0.93791378  0.53288569  0.77380036     0.15000
H279        H  0.07823917  0.51662458  0.89086617     0.46900
H280        H  0.05844757  0.61939000  0.75019956     0.42300
H281        H  0.92156560  0.49610967  0.68046827     0.45700
H282        H  0.98184338  0.64910915  0.80093907     0.37200
C283        C  0.96372903  0.80631514  0.59961872    -0.27100
C284        C  0.99815660  0.78566571  0.58257541     0.02500
C285        C  0.03172160  0.80902768  0.56785816     0.30600
C286        C  0.02921254  0.85245307  0.56753948    -0.18900
C287        C  0.99438531  0.87294481  0.58386336    -0.28300
C288        C  0.96191757  0.84968007  0.60073902     0.44700
C289        C  0.99711935  0.73989557  0.57864356     0.05800
O290        O  0.06646445  0.78971480  0.55264384    -0.56800
H291        H  0.05449083  0.87017934  0.55460986     0.18800
O292        O  0.92773884  0.86905866  0.61713663    -0.63500
H293        H  0.93787053  0.78868029  0.61149541     0.17200
C294        C  0.02233452  0.71458680  0.60282313     0.29500
C295        C  0.01556202  0.67158710  0.60346086    -0.24400
C296        C  0.98350524  0.65371859  0.58040082    -0.23700
C297        C  0.96094347  0.67866749  0.55339697     0.40900
C298        C  0.96719103  0.72141595  0.55345684    -0.26100
O299        O  0.05120894  0.73189849  0.62844090    -0.58000
H300        H  0.03242790  0.65300253  0.62514681     0.16600
O301        O  0.92902312  0.66235898  0.53078400    -0.59500
H302        H  0.94723440  0.74035777  0.53505211     0.15000
H303        H  0.90606545  0.86552673  0.59597465     0.46900
H304        H  0.03611538  0.73838064  0.65449018     0.42300
H305        H  0.94142577  0.64021074  0.51308891     0.45700
H306        H  0.08677385  0.79130259  0.57524709     0.37200
C307        C  0.80633375  0.58876631  0.01806210    -0.27100
C308        C  0.79051860  0.55227108  0.03563333     0.02500
C309        C  0.81865768  0.52202159  0.04888497     0.30600
C310        C  0.86130760  0.52850185  0.04432839    -0.18900
C311        C  0.87711908  0.56471697  0.02642973    -0.28300
C312        C  0.84909672  0.59513570  0.01347491     0.44700
C313        C  0.74481050  0.54745346  0.04136099     0.05800
O314        O  0.80473434  0.48481510  0.06365855    -0.56800
H315        H  0.88217490  0.50457674  0.05456826     0.18800
O316        O  0.86301873  0.63111276  0.99621112    -0.63500
H317        H  0.78537680  0.61277701  0.00822513     0.17200
C318        C  0.72748565  0.53795371  0.08011869     0.29500
C319        C  0.68483237  0.54137838  0.08678068    -0.24400
C320        C  0.65863836  0.55670169  0.05619435    -0.23700
C321        C  0.67515475  0.56150453  0.01614735     0.40900
C322        C  0.71786310  0.55692681  0.00906137    -0.26100
O323        O  0.75209735  0.52915162  0.11297723    -0.58000
H324        H  0.67286420  0.53611411  0.11751686     0.16600
O325        O  0.65081172  0.57462964  0.98462918    -0.59500
H326        H  0.73029363  0.56321990  0.97870694     0.15000
H327        H  0.86363014  0.62541470  0.96607836     0.45100
H328        H  0.75965799  0.55643201  0.12510730     0.42300
H329        H  0.64077731  0.54886193  0.97107676     0.45700
H330        H  0.81668330  0.48215399  0.09148907     0.37200
C331        C  0.61291818  0.81311828  0.00844885    -0.27100
C332        C  0.57528473  0.79358981  0.99914871     0.02500
C333        C  0.54223917  0.81831264  0.98597546     0.30600
C334        C  0.54599964  0.86174690  0.98510678    -0.18900
C335        C  0.58298066  0.88168968  0.99649258    -0.28300
C336        C  0.61701130  0.85658126  0.00706668     0.44700
C337        C  0.56931653  0.74856192  0.00831932     0.05800
O338        O  0.50578797  0.80027851  0.97447306    -0.56800
H339        H  0.51956650  0.87989509  0.97595980     0.18800
O340        O  0.65412061  0.87410877  0.01743988    -0.63500
H341        H  0.63878730  0.79473003  0.01862462     0.17200
C342        C  0.59276156  0.71699002  0.98867145     0.29500
C343        C  0.59054354  0.67576025  0.00260584    -0.24400
C344        C  0.56612358  0.66553055  0.03710728    -0.23700
C345        C  0.54100361  0.69698999  0.05524523     0.40900
C346        C  0.54248961  0.73762529  0.04051779    -0.26100
O347        O  0.61870319  0.72634287  0.95651709    -0.58000
H348        H  0.61060394  0.65258136  0.98855068     0.16600
O349        O  0.51800140  0.68966785  0.09015421    -0.59500
H350        H  0.52464229  0.76146380  0.05630322     0.15000
H351        H  0.65266777  0.87849785  0.04770263     0.46900
H352        H  0.64662834  0.72820010  0.96867140     0.42300
H353        H  0.50162305  0.66437795  0.08432328     0.45700
H354        H  0.50973900  0.79224074  0.94511772     0.37200
C355        C  0.72129635  0.96215983  0.43841919    -0.27100
C356        C  0.74853789  0.99448845  0.44879776     0.02500
C357        C  0.73257720  0.03121036  0.46621744     0.30600
C358        C  0.69012626  0.03598638  0.47172107    -0.18900
C359        C  0.66237036  0.00712622  0.45443443    -0.28300
C360        C  0.67823934  0.96836631  0.44097564     0.44700
C361        C  0.79318828  0.99216229  0.43876709     0.05800
O362        O  0.75813851  0.06398618  0.47494527    -0.56800
H363        H  0.67897057  0.06503925  0.48478698     0.18800
O364        O  0.65239980  0.93748531  0.42768784    -0.63500
H365        H  0.73331264  0.93324504  0.42582532     0.17200
C366        C  0.82069006  0.97055243  0.46383614     0.29500
C367        C  0.86323192  0.97543280  0.45856328    -0.24400
C368        C  0.87912419  0.00071225  0.42748559    -0.23700
C369        C  0.85182397  0.02065293  0.40084387     0.40900
C370        C  0.80908626  0.01659752  0.40684422    -0.26100
O371        O  0.80646509  0.94579646  0.49460145    -0.58000
H372        H  0.88394076  0.95913844  0.47875513     0.16600
O373        O  0.86655406  0.04529872  0.36997106    -0.59500
H374        H  0.78824846  0.03360083  0.38738051     0.15000
H375        H  0.64222142  0.92408990  0.45310087     0.46900
H376        H  0.80751309  0.91721270  0.48292415     0.42300
H377        H  0.86479606  0.07400032  0.38117265     0.45700
H378        H  0.75661148  0.08223848  0.45069097     0.37200
C379        C  0.56894053  0.96304760  0.19186181    -0.27100
C380        C  0.58503642  0.99580472  0.21573725     0.02500
C381        C  0.60666314  0.02786627  0.19576785     0.30600
C382        C  0.60952408  0.02818239  0.15263702    -0.18900
C383        C  0.59014617  0.99741641  0.12887821    -0.28300
C384        C  0.57044302  0.96421767  0.14871852     0.44700
C385        C  0.57696858  0.99790885  0.26098734     0.05800
O386        O  0.62576140  0.05852218  0.21834823    -0.56800
H387        H  0.62547591  0.05346441  0.13770992     0.18800
O388        O  0.55216997  0.93303727  0.12620701    -0.63500
H389        H  0.55410393  0.93710084  0.20661510     0.17200
C390        C  0.55615848  0.03225308  0.27862586     0.29500
C391        C  0.55103622  0.03542103  0.32130311    -0.24400
C392        C  0.56984419  0.00717789  0.34776532    -0.23700
C393        C  0.58837313  0.97134483  0.33021130     0.40900
C394        C  0.59078008  0.96639417  0.28698261    -0.26100
O395        O  0.54388648  0.06460005  0.25458412    -0.58000
H396        H  0.53590276  0.06282963  0.33396320     0.16600
O397        O  0.60673973  0.94258634  0.35465446    -0.59500
H398        H  0.60628496  0.93942803  0.27387534     0.15000
H399        H  0.57480272  0.91339280  0.11908109     0.46900
H400        H  0.51538430  0.07207862  0.26349805     0.42300
H401        H  0.63681710  0.94586681  0.34974553     0.45700
H402        H  0.61130306  0.08462820  0.21156055     0.37200
C403        C  0.02456359  0.73873294  0.47355856    -0.27100
C404        C  0.98953933  0.75149662  0.45244449     0.02500
C405        C  0.96185437  0.72168492  0.43708698     0.30600
C406        C  0.97149055  0.67938650  0.43992127    -0.18900
C407        C  0.00844417  0.66663355  0.45834632    -0.28300
C408        C  0.03340366  0.69674233  0.47790608     0.44700
C409        C  0.98591425  0.79573730  0.44259240     0.05800
O410        O  0.92746522  0.73363074  0.41604167    -0.56800
H411        H  0.95172428  0.65695099  0.42487141     0.18800
O412        O  0.06889022  0.68557611  0.49763586    -0.63500
H413        H  0.04633307  0.76153880  0.48469968     0.17200
C414        C  0.96553343  0.82374240  0.46939364     0.29500
C415        C  0.96993410  0.86640446  0.46376117    -0.24400
C416        C  0.99376141  0.88158860  0.43092204    -0.23700
C417        C  0.01220732  0.85344255  0.40276543     0.40900
C418        C  0.00846405  0.81079864  0.40893663    -0.26100
O419        O  0.94242781  0.80986434  0.50190179    -0.58000
H420        H  0.95459828  0.88767708  0.48503793     0.16600
O421        O  0.03527205  0.86725007  0.37010004    -0.59500
H422        H  0.02448447  0.78938489  0.38828310     0.15000
H423        H  0.06110536  0.68391872  0.52702047     0.46900
H424        H  0.91534037  0.80221113  0.49005930     0.42300
H425        H  0.06358145  0.87093008  0.38092978     0.45700
H426        H  0.90447426  0.73232490  0.43643599     0.37200
C427        C  0.02854808  0.58654246  0.21005334    -0.27100
C428        C  0.99402795  0.56931663  0.23012657     0.02500
C429        C  0.95947507  0.55780463  0.20650737     0.30600
C430        C  0.96178054  0.55896126  0.16339007    -0.18900
C431        C  0.99714481  0.57427543  0.14358656    -0.28300
C432        C  0.03013004  0.58929998  0.16715225     0.44700
C433        C  0.99570657  0.56249629  0.27529025     0.05800
O434        O  0.92381912  0.54444783  0.22509685    -0.56800
H435        H  0.93576127  0.54828978  0.14537204     0.18800
O436        O  0.06437029  0.60592973  0.14849068    -0.63500
H437        H  0.05465425  0.59749384  0.22773789     0.17200
C438        C  0.02975527  0.54187475  0.29228491     0.29500
C439        C  0.03452328  0.54045910  0.33473989    -0.24400
C440        C  0.00776265  0.56250614  0.36108785    -0.23700
C441        C  0.97109806  0.57896553  0.34490306     0.40900
C442        C  0.96527154  0.57892938  0.30207999    -0.26100
O443        O  0.05964974  0.52437699  0.26760286    -0.58000
H444        H  0.06224940  0.52642007  0.34676645     0.16600
O445        O  0.94311120  0.59917437  0.36992052    -0.59500
H446        H  0.93861171  0.59461662  0.28983358     0.15000
H447        H  0.08263046  0.58197681  0.14197991     0.46900
H448        H  0.08420756  0.54258256  0.27039277     0.42300
H449        H  0.92606519  0.57693526  0.38214525     0.45700
H450        H  0.90444785  0.56827517  0.22390327     0.37200
C451        C  0.97255248  0.19332868  0.39386798    -0.27100
C452        C  0.00410104  0.21558489  0.41380778     0.02500
C453        C  0.03854441  0.19388959  0.42862205     0.30600
C454        C  0.03871780  0.15047920  0.42755392    -0.18900
C455        C  0.00633175  0.12840457  0.40922047    -0.28300
C456        C  0.97381418  0.15003577  0.39100716     0.44700
C457        C  0.99810382  0.26051490  0.42238442     0.05800
O458        O  0.07093829  0.21459351  0.44638390    -0.56800
H459        H  0.06397255  0.13400164  0.44153965     0.18800
O460        O  0.94195093  0.12905653  0.37257720    -0.63500
H461        H  0.94618536  0.20956935  0.38161641     0.17200
C462        C  0.02690839  0.29061584  0.40986330     0.29500
C463        C  0.01787951  0.33288339  0.41542379    -0.24400
C464        C  0.97981597  0.34577048  0.43232105    -0.23700
C465        C  0.95268541  0.31543570  0.44810287     0.40900
C466        C  0.96165140  0.27342981  0.44241636    -0.26100
O467        O  0.06261720  0.27927533  0.38965775    -0.58000
H468        H  0.03937017  0.35539998  0.40353828     0.16600
O469        O  0.91594691  0.32626498  0.46678233    -0.59500
H470        H  0.93951978  0.25071473  0.45302987     0.15000
H471        H  0.92107943  0.12524154  0.39467698     0.46900
H472        H  0.05483579  0.27591423  0.36033906     0.42300
H473        H  0.92350435  0.34178334  0.49220563     0.45700
H474        H  0.09444367  0.21106656  0.42686253     0.37200
C475        C  0.99098674  0.39605346  0.19398751    -0.27100
C476        C  0.01778494  0.42481976  0.21275383     0.02500
C477        C  0.04487663  0.44774314  0.18771081     0.30600
C478        C  0.04222919  0.44440798  0.14467957    -0.18900
C479        C  0.01368565  0.41754898  0.12606113    -0.28300
C480        C  0.98907199  0.39204051  0.15101205     0.44700
C481        C  0.01110739  0.43560445  0.25702981     0.05800
O482        O  0.07380619  0.47350872  0.20491556    -0.56800
H483        H  0.06225447  0.46333323  0.12575404     0.18800
O484        O  0.96153862  0.36468762  0.13379895    -0.63500
H485        H  0.96999528  0.37808603  0.21279764     0.17200
C486        C  0.97425746  0.45551343  0.26879475     0.29500
C487        C  0.96488855  0.46261792  0.31032045    -0.24400
C488        C  0.98964440  0.44612693  0.34152566    -0.23700
C489        C  0.02852812  0.42935680  0.32983572     0.40900
C490        C  0.03906877  0.42429010  0.28773388    -0.26100
O491        O  0.94617185  0.46650578  0.23963629    -0.58000
H492        H  0.93607061  0.47807721  0.31794085     0.16600
O493        O  0.05549401  0.41575251  0.35888254    -0.59500
H494        H  0.06802111  0.40957238  0.27913409     0.15000
H495        H  0.93657348  0.38139496  0.12802275     0.46900
H496        H  0.92472465  0.44454232  0.24011277     0.42300
H497        H  0.07067892  0.44085760  0.36806844     0.45700
H498        H  0.06929135  0.50115083  0.19269732     0.37200
C499        C  0.96373948  0.42559659  0.72414261    -0.27100
C500        C  0.99624631  0.43971661  0.74895597     0.02500
C501        C  0.03189153  0.45609558  0.72997993     0.30600
C502        C  0.03614464  0.45431300  0.68714005    -0.18900
C503        C  0.00609233  0.43485780  0.66277349    -0.28300
C504        C  0.96844075  0.42317179  0.68124963     0.44700
C505        C  0.99514839  0.43269187  0.79401757     0.05800
O506        O  0.06462346  0.46944286  0.75324411    -0.56800
H507        H  0.06531874  0.46346776  0.67339717     0.18800
O508        O  0.93821980  0.40426049  0.65856515    -0.63500
H509        H  0.93609694  0.41292526  0.73810211     0.17200
C510        C  0.96228656  0.44689923  0.81927687     0.29500
C511        C  0.96465441  0.44319000  0.86208205    -0.24400
C512        C  0.99808689  0.42277005  0.87987718    -0.23700
C513        C  0.02920417  0.40557519  0.85459419     0.40900
C514        C  0.02780628  0.41090373  0.81202510    -0.26100
O515        O  0.92827568  0.46522372  0.80264270    -0.58000
H516        H  0.94014544  0.45591525  0.88142231     0.16600
O517        O  0.06169751  0.38459792  0.87131656    -0.59500
H518        H  0.05249044  0.39814154  0.79296328     0.15000
H519        H  0.92330905  0.42714050  0.64510731     0.46900
H520        H  0.90615416  0.44397668  0.80383564     0.42300
H521        H  0.08272217  0.40606193  0.87733235     0.45700
H522        H  0.07019839  0.49827705  0.74488738     0.37200
C523        C  0.94825015  0.18051455  0.52833635    -0.27100
C524        C  0.96331751  0.20690931  0.55929914     0.02500
C525        C  0.98066267  0.18987667  0.59478567     0.30600
C526        C  0.98427092  0.14685179  0.59828442    -0.18900
C527        C  0.97122847  0.12022898  0.56637078    -0.28300
C528        C  0.95177828  0.13732867  0.53176756     0.44700
C529        C  0.96814359  0.25158250  0.55161909     0.05800
O530        O  0.99567901  0.21522567  0.62547121    -0.56800
H531        H  0.99870877  0.13440078  0.62539384     0.18800
O532        O  0.93489270  0.11201265  0.50202425    -0.63500
H533        H  0.93480052  0.19338774  0.50094732     0.17200
C534        C  0.00413027  0.26510063  0.53168583     0.29500
C535        C  0.01422246  0.30707737  0.53177719    -0.24400
C536        C  0.99083361  0.33561515  0.55527031    -0.23700
C537        C  0.95228494  0.32289959  0.57138101     0.40900
C538        C  0.94119416  0.28082427  0.56959422    -0.26100
O539        O  0.03180265  0.23688625  0.51582490    -0.58000
H540        H  0.04372620  0.31626310  0.51877885     0.16600
O541        O  0.92760663  0.35006298  0.59311944    -0.59500
H542        H  0.91330437  0.27062680  0.58507522     0.15000
H543        H  0.94873461  0.11949060  0.47582760     0.46900
H544        H  0.05162662  0.23178261  0.53830773     0.42300
H545        H  0.91394905  0.36704896  0.57206405     0.45700
H546        H  0.02559204  0.21802639  0.61940506     0.37200
C547        C  0.80947932  0.39988357  0.00105013    -0.27100
C548        C  0.79514679  0.43487338  0.97987071     0.02500
C549        C  0.82422825  0.46460308  0.96693845     0.30600
C550        C  0.86628600  0.45904524  0.97492974    -0.18900
C551        C  0.88070131  0.42434289  0.99613113    -0.28300
C552        C  0.85186121  0.39444237  0.00907881     0.44700
C553        C  0.75011803  0.44003363  0.97092755     0.05800
O554        O  0.81148128  0.50076501  0.94918056    -0.56800
H555        H  0.88782500  0.48254388  0.96469598     0.18800
O556        O  0.86458250  0.36009431  0.02984407    -0.63500
H557        H  0.78775384  0.37653000  0.01113616     0.17200
C558        C  0.73670147  0.44892860  0.93088048     0.29500
C559        C  0.69462009  0.45312729  0.92263646    -0.24400
C560        C  0.66413281  0.44563076  0.95292302    -0.23700
C561        C  0.67760479  0.43831648  0.99354012     0.40900
C562        C  0.72010202  0.43560276  0.00217397    -0.26100
O563        O  0.76433892  0.45152906  0.89875553    -0.58000
H564        H  0.68628727  0.46029795  0.89144116     0.16600
O565        O  0.64972328  0.43205463  0.02484102    -0.59500
H566        H  0.72962734  0.42939539  0.03336044     0.15000
H567        H  0.86517056  0.36886671  0.05922279     0.46900
H568        H  0.76870279  0.42256110  0.88905282     0.42300
H569        H  0.64304249  0.46018442  0.03575320     0.45700
H570        H  0.82518213  0.50149222  0.92179833     0.37200
C571        C  0.55411073  0.20097846  0.02204449    -0.27100
C572        C  0.58334675  0.22062728  0.99672407     0.02500
C573        C  0.61701459  0.19696180  0.98144270     0.30600
C574        C  0.61911229  0.15408601  0.98860414    -0.18900
C575        C  0.58776510  0.13359845  0.01056020    -0.28300
C576        C  0.55583928  0.15788752  0.02862223     0.44700
C577        C  0.57705204  0.26465645  0.98368327     0.05800
O578        O  0.64834148  0.21574619  0.95987479    -0.56800
H579        H  0.64459258  0.13654164  0.97527273     0.18800
O580        O  0.52524949  0.13969411  0.05151914    -0.63500
H581        H  0.52840333  0.21863355  0.03477916     0.17200
C582        C  0.57656951  0.27442708  0.94164906     0.29500
C583        C  0.57335466  0.31567011  0.92927858    -0.24400
C584        C  0.56972296  0.34900137  0.95795429    -0.23700
C585        C  0.56776702  0.33880147  0.00017512     0.40900
C586        C  0.57131740  0.29712181  0.01265670    -0.26100
O587        O  0.57998761  0.24372950  0.91205605    -0.58000
H588        H  0.57476864  0.32077236  0.89657465     0.16600
O589        O  0.56346698  0.36924828  0.02974336    -0.59500
H590        H  0.57069497  0.29029438  0.04520099     0.15000
H591        H  0.53512205  0.14111030  0.08026028     0.46900
H592        H  0.55215450  0.24087343  0.90011097     0.42300
H593        H  0.53331536  0.37120501  0.03509790     0.45700
H594        H  0.64802874  0.20303858  0.93188321     0.37200
C595        C  0.19068543  0.03866998  0.43205370    -0.27100
C596        C  0.21284427  0.00389330  0.41786324     0.02500
C597        C  0.19137913  0.97068283  0.39909943     0.30600
C598        C  0.14824833  0.97153624  0.39704891    -0.18900
C599        C  0.12611789  0.00494188  0.41422165    -0.28300
C600        C  0.14752551  0.03888797  0.43134305     0.44700
C601        C  0.25794002  0.00111635  0.42440533     0.05800
O602        O  0.21229940  0.93694160  0.38332048    -0.56800
H603        H  0.13200625  0.94542238  0.38345592     0.18800
O604        O  0.12643421  0.07221848  0.44777223    -0.63500
H605        H  0.20669048  0.06537131  0.44442784     0.17200
C606        C  0.28563751  0.02968488  0.40691395     0.29500
C607        C  0.32827772  0.02223971  0.40839153    -0.24400
C608        C  0.34350070  0.98631583  0.42689988    -0.23700
C609        C  0.31594129  0.96042776  0.44830840     0.40900
C610        C  0.27357012  0.96763990  0.44647759    -0.26100
O611        O  0.27132270  0.06299272  0.38549348    -0.58000
H612        H  0.34891194  0.04224359  0.39146751     0.16600
O613        O  0.32974394  0.92527592  0.46713184    -0.59500
H614        H  0.25273181  0.94584013  0.46076934     0.15000
H615        H  0.12765602  0.09367694  0.42628688     0.46900
H616        H  0.26540122  0.05202058  0.35748479     0.42300
H617        H  0.34786043  0.93515651  0.48969620     0.45700
H618        H  0.22139525  0.94516521  0.35539185     0.37200
C619        C  0.47444777  0.03661073  0.18168905    -0.27100
C620        C  0.44181898  0.02315972  0.20664218     0.02500
C621        C  0.40486099  0.01002449  0.18810492     0.30600
C622        C  0.40170089  0.00886547  0.14501243    -0.18900
C623        C  0.43525694  0.02064170  0.11993773    -0.28300
C624        C  0.47113114  0.03630306  0.13890094     0.44700
C625        C  0.44887927  0.01624061  0.25093394     0.05800
O626        O  0.37236895  0.99660462  0.21180409    -0.56800
H627        H  0.37358255  0.99720766  0.13125806     0.18800
O628        O  0.50360072  0.05082915  0.11595424    -0.63500
H629        H  0.50324131  0.04620644  0.19505089     0.17200
C630        C  0.46936513  0.98012031  0.26288706     0.29500
C631        C  0.47183521  0.97023273  0.30443170    -0.24400
C632        C  0.45099565  0.99428316  0.33453965    -0.23700
C633        C  0.43474200  0.03307005  0.32313458     0.40900
C634        C  0.43325579  0.04358764  0.28131122    -0.26100
O635        O  0.48418196  0.95256536  0.23384211    -0.58000
H636        H  0.48562048  0.94087450  0.31255388     0.16600
O637        O  0.41671117  0.05903840  0.35184156    -0.59500
H638        H  0.41817689  0.07203317  0.27244949     0.15000
H639        H  0.49781682  0.08071409  0.11242239     0.46900
H640        H  0.46139408  0.93257080  0.22907112     0.42300
H641        H  0.44005106  0.07268806  0.36620604     0.45700
H642        H  0.37753243  0.96660698  0.21592460     0.37200
C643        C  0.40932055  0.02347672  0.80728689    -0.27100
C644        C  0.42700536  0.98933551  0.78638908     0.02500
C645        C  0.44411960  0.95696808  0.80927788     0.30600
C646        C  0.44572316  0.96027518  0.85240703    -0.18900
C647        C  0.42808928  0.99450687  0.87321114    -0.28300
C648        C  0.40924376  0.02592269  0.85036152     0.44700
C649        C  0.42901696  0.98939327  0.74075807     0.05800
O650        O  0.45989504  0.92239350  0.78974400    -0.56800
H651        H  0.45992414  0.93566925  0.86967989     0.18800
O652        O  0.39151347  0.05962507  0.86984485    -0.63500
H653        H  0.39575091  0.04846162  0.79004203     0.17200
C654        C  0.40276257  0.96435042  0.71666624     0.29500
C655        C  0.40100962  0.96993960  0.67385471    -0.24400
C656        C  0.42484902  0.00080554  0.65487922    -0.23700
C657        C  0.45326452  0.02358034  0.67874270     0.40900
C658        C  0.45455701  0.01830120  0.72125744    -0.26100
O659        O  0.37627932  0.93692761  0.73503516    -0.58000
H660        H  0.37791908  0.95326123  0.65632626     0.16600
O661        O  0.47604489  0.05496512  0.66165066    -0.59500
H662        H  0.47435757  0.03830744  0.73921858     0.15000
H663        H  0.41404055  0.08030465  0.87254556     0.46900
H664        H  0.35081106  0.95307891  0.74115076     0.42300
H665        H  0.49347574  0.04160785  0.63999400     0.45700
H666        H  0.43827226  0.90086399  0.79258602     0.37200
C667        C  0.17716426  0.02969157  0.57550195    -0.27100
C668        C  0.19589396  0.99802198  0.55160258     0.02500
C669        C  0.17094413  0.96712380  0.53367666     0.30600
C670        C  0.12793192  0.96861033  0.53911454    -0.18900
C671        C  0.10928710  0.00007829  0.56320525    -0.28300
C672        C  0.13425399  0.03057968  0.58178041     0.44700
C673        C  0.24146916  0.99787356  0.54592261     0.05800
O674        O  0.18837319  0.93523313  0.51113461    -0.56800
H675        H  0.10907592  0.94472093  0.52488831     0.18800
O676        O  0.11689164  0.06232037  0.60459456    -0.63500
H677        H  0.19598391  0.05363313  0.58965215     0.17200
C678        C  0.26139386  0.03141887  0.52708305     0.29500
C679        C  0.30443045  0.03390191  0.52669162    -0.24400
C680        C  0.32820323  0.00588083  0.54915503    -0.23700
C681        C  0.30872704  0.97043868  0.56528485     0.40900
C682        C  0.26557384  0.96632825  0.56297899    -0.26100
O683        O  0.23895795  0.06334976  0.51126366    -0.58000
H684        H  0.31883025  0.06125278  0.51392234     0.16600
O685        O  0.33058788  0.94254966  0.58787552    -0.59500
H686        H  0.25066497  0.94034320  0.57774255     0.15000
H687        H  0.11762246  0.05292312  0.63350320     0.46900
H688        H  0.24068703  0.08623332  0.53194014     0.42300
H689        H  0.34153274  0.92205800  0.56748057     0.45700
H690        H  0.17945832  0.93947355  0.48247978     0.37200
C691        C  0.40637471  0.81155325  0.98595377    -0.27100
C692        C  0.42452642  0.79411587  0.02082874     0.02500
C693        C  0.44378488  0.82071153  0.04971636     0.30600
C694        C  0.44510636  0.86364881  0.04336855    -0.18900
C695        C  0.42591114  0.88123854  0.00926443    -0.28300
C696        C  0.40671410  0.85480110  0.98023709     0.44700
C697        C  0.42197965  0.74859674  0.02837481     0.05800
O698        O  0.46218528  0.80480962  0.08391613    -0.56800
H699        H  0.46051048  0.88341863  0.06570077     0.18800
O700        O  0.38873078  0.87085122  0.94591442    -0.63500
H701        H  0.39139856  0.79165387  0.96346916     0.17200
C702        C  0.40010813  0.73428011  0.06284370     0.29500
C703        C  0.40175821  0.69247717  0.07331464    -0.24400
C704        C  0.42510352  0.66333636  0.04990571    -0.23700
C705        C  0.44392891  0.67697835  0.01315862     0.40900
C706        C  0.44250280  0.71939809  0.00272988    -0.26100
O707        O  0.37738866  0.76119971  0.08709018    -0.58000
H708        H  0.38452243  0.68308338  0.10031330     0.16600
O709        O  0.46394953  0.64931486  0.98746994    -0.59500
H710        H  0.45848085  0.72961941  0.97527447     0.15000
H711        H  0.41161325  0.87387318  0.92562300     0.46900
H712        H  0.35035023  0.76349837  0.07326681     0.42300
H713        H  0.49379136  0.65375138  0.99230239     0.45700
H714        H  0.44319506  0.81155699  0.10719389     0.37200
C715        C  0.19196579  0.54504491  0.00050009    -0.27100
C716        C  0.21266091  0.56822840  0.03066773     0.02500
C717        C  0.19008115  0.59711835  0.05495159     0.30600
C718        C  0.14721480  0.60130459  0.04980186    -0.18900
C719        C  0.12617633  0.57604010  0.02139276    -0.28300
C720        C  0.14906223  0.54819166  0.99622524     0.44700
C721        C  0.25755518  0.56149186  0.03728065     0.05800
O722        O  0.20981839  0.62171648  0.08340979    -0.56800
H723        H  0.13017211  0.62297917  0.06931276     0.18800
O724        O  0.12964803  0.52340579  0.96772537    -0.63500
H725        H  0.20894786  0.52334399  0.98117753     0.17200
C726        C  0.27185171  0.54526429  0.07445037     0.29500
C727        C  0.31431224  0.54372891  0.08227702    -0.24400
C728        C  0.34343103  0.55913109  0.05379462    -0.23700
C729        C  0.32902521  0.57118794  0.01472699     0.40900
C730        C  0.28644041  0.57228969  0.00682071    -0.26100
O731        O  0.24440346  0.53258213  0.10412232    -0.58000
H732        H  0.32414486  0.53229321  0.11175165     0.16600
O733        O  0.35583677  0.58480360  0.98496462    -0.59500
H734        H  0.27587103  0.58360267  0.97750506     0.15000
H735        H  0.13025051  0.53939208  0.94196067     0.46900
H736        H  0.24498853  0.50182827  0.10270249     0.42300
H737        H  0.36519298  0.55935580  0.97011664     0.45700
H738        H  0.20319812  0.60944300  0.11049553     0.37200
C739        C  0.46768992  0.27991989  0.93586394    -0.27100
C740        C  0.45172401  0.26498272  0.97319989     0.02500
C741        C  0.43979612  0.29460860  0.00372579     0.30600
C742        C  0.43866288  0.33731988  0.99438687    -0.18900
C743        C  0.45041777  0.35148578  0.95521975    -0.28300
C744        C  0.46813453  0.32242948  0.92719832     0.44700
C745        C  0.44749405  0.21871469  0.97877586     0.05800
O746        O  0.43020073  0.28222336  0.04293704    -0.56800
H747        H  0.42666021  0.35904438  0.01725777     0.18800
O748        O  0.48585676  0.33543303  0.89100089    -0.63500
H749        H  0.47853182  0.25848550  0.91219197     0.17200
C750        C  0.41170358  0.20050813  0.99626280     0.29500
C751        C  0.40839082  0.15709598  0.99948844    -0.24400
C752        C  0.43977862  0.13054686  0.98454103    -0.23700
C753        C  0.47456512  0.14856267  0.96537877     0.40900
C754        C  0.47819412  0.19180704  0.96287105    -0.26100
O755        O  0.37888036  0.22451595  0.00889242    -0.58000
H756        H  0.38090469  0.14417191  0.01356078     0.16600
O757        O  0.50545452  0.12426062  0.94877027    -0.59500
H758        H  0.50566017  0.20426628  0.94849876     0.15000
H759        H  0.47159323  0.32020192  0.86852158     0.46900
H760        H  0.36371546  0.23094233  0.98342248     0.42300
H761        H  0.49654982  0.11768353  0.92031782     0.45700
H762        H  0.40172263  0.29226393  0.04867617     0.37200
C763        C  0.19505016  0.44768496  0.02240326    -0.27100
C764        C  0.21585844  0.43198815  0.98741517     0.02500
C765        C  0.19324835  0.40889947  0.95797018     0.30600
C766        C  0.15048576  0.40294786  0.96325622    -0.18900
C767        C  0.12944232  0.42083299  0.99703011    -0.28300
C768        C  0.15212103  0.44308347  0.02685913     0.44700
C769        C  0.26065942  0.44123479  0.98100223     0.05800
O770        O  0.21288681  0.39152962  0.92427165    -0.56800
H771        H  0.13348305  0.38579707  0.94002730     0.18800
O772        O  0.13236639  0.46154798  0.05988436    -0.63500
H773        H  0.21184652  0.46537415  0.04532868     0.17200
C774        C  0.27420036  0.46329809  0.94635648     0.29500
C775        C  0.31654761  0.46750854  0.93806491    -0.24400
C776        C  0.34639368  0.44876631  0.96302998    -0.23700
C777        C  0.33286613  0.43091034  0.00027870     0.40900
C778        C  0.29030032  0.42730791  0.00899328    -0.26100
O779        O  0.24618942  0.47870459  0.91905562    -0.58000
H780        H  0.32592459  0.48280855  0.91003005     0.16600
O781        O  0.36053357  0.41371519  0.02671624    -0.59500
H782        H  0.28041755  0.41143633  0.03653762     0.15000
H783        H  0.13315258  0.44077361  0.08200018     0.46900
H784        H  0.24942342  0.50926950  0.92037590     0.42300
H785        H  0.37005160  0.43714033  0.04436830     0.45700
H786        H  0.20335967  0.40761358  0.90034455     0.37200
loop_ 
_geom_bond_atom_site_label_1 
_geom_bond_atom_site_label_2 
_geom_bond_distance 
_geom_bond_site_symmetry_2 
_ccdc_geom_bond_type 
O1            V9   1.919       .  S
O1           C11   1.265   1_554  A
O2            V9   1.911       .  S
O2           C12   1.271       .  A
O3            V9   1.927       .  S
O3           C13   1.267   1_554  A
O4            V9   1.918       .  S
O4           C14   1.272       .  A
O5           V10   1.924       .  S
O5           C14   1.266   1_556  A
O6           V10   1.911       .  S
O6           C13   1.270       .  A
O7           V10   1.922       .  S
O7           C12   1.266   1_556  A
O8           V10   1.913       .  S
O8           C11   1.273       .  A
V9           V10   2.085   1_554  T
C11          N85   1.455       .  S
C12          N50   1.454       .  S
C13          N43   1.451       .  S
C14         N148   1.453       .  S
O15          V23   1.951       .  S
O15          C25   1.276       .  A
O16          V23   1.956       .  S
O16          C26   1.277       .  A
O17          V23   1.870       .  S
O17          C27   1.259       .  A
O18          V23   1.871       .  S
O18          C28   1.259       .  A
O19          V24   1.945       .  S
O19          C28   1.274   1_545  A
O20          V24   1.945       .  S
O20          C27   1.274   1_545  A
O21          V24   1.870       .  S
O21          C26   1.260   1_545  A
O22          V24   1.874       .  S
O22          C25   1.260   1_545  A
V23          V24   2.084   1_565  T
C25          N57   1.450       .  S
C26         N127   1.454       .  S
C27         N162   1.445       .  S
C28          N78   1.445       .  S
O29          V37   1.870       .  S
O29          C39   1.259       .  A
O30          V37   1.870       .  S
O30          C40   1.260       .  A
O31          V37   1.943       .  S
O31          C41   1.274       .  A
O32          V37   1.945       .  S
O32          C42   1.274       .  A
O33          V38   1.865       .  S
O33          C42   1.258   1_455  A
O34          V38   1.868       .  S
O34          C41   1.258   1_455  A
O35          V38   1.954       .  S
O35          C40   1.277   1_455  A
O36          V38   1.950       .  S
O36          C39   1.276   1_455  A
V37          V38   2.085   1_655  T
C39         N155   1.448       .  S
C40         N113   1.454       .  S
C41          N92   1.441       .  S
C42         N120   1.443   1_655  S
N43          C47   1.368       .  A
N43          C44   1.369       .  A
C44          C45   1.386       .  A
C44         C743   1.506       .  S
C45          C46   1.358       .  A
C45          H48   1.080       .  S
C46          C47   1.383       .  A
C46          H49   1.082       .  S
C47         C776   1.502       .  S
N50          C54   1.364       .  A
N50          C51   1.362       .  A
C51          C52   1.387       .  A
C51         C704   1.509       .  S
C52          C53   1.366       .  A
C52          H55   1.083       .  S
C53          C54   1.387       .  A
C53          H56   1.081       .  S
C54         C728   1.503       .  S
N57          C61   1.369   1_565  A
N57          C58   1.368   1_565  A
C58          C59   1.378       .  A
C58         C656   1.476       .  S
C59          C60   1.350       .  A
C59          H62   1.083       .  S
C60          C61   1.385       .  A
C60          H63   1.083       .  S
C61         C680   1.483       .  S
O64          V72   1.903   1_564  S
O64          C74   1.264       .  A
O65          V72   1.904       .  S
O65          C75   1.266       .  A
O66          V72   1.898   1_554  S
O66          C76   1.265       .  A
O67          V72   1.905   1_565  S
O67          C77   1.265       .  A
O68          V73   1.900       .  S
O68          C77   1.264   1_545  A
O69          V73   1.906   1_554  S
O69          C76   1.265       .  A
O70          V73   1.918       .  S
O70          C75   1.269       .  A
O71          V73   1.920   1_565  S
O71          C74   1.269   1_556  A
V72          V73   2.079       .  T
C74         C695   1.486       .  S
C75         C752   1.497       .  S
C76         C623   1.485       .  S
C77         C647   1.475       .  S
N78          C82   1.364       .  A
N78          C79   1.368       .  A
C79          C80   1.388       .  A
C79         C632   1.488       .  S
C80          C81   1.354       .  A
C80          H83   1.083       .  S
C81          C82   1.379       .  A
C81          H84   1.083       .  S
C82         C608   1.476       .  S
N85          C89   1.364       .  A
N85          C86   1.367       .  A
C86          C87   1.389       .  A
C86         C584   1.519       .  S
C87          C88   1.365       .  A
C87          H90   1.080       .  S
C88          C89   1.388       .  A
C88          H91   1.080       .  S
C89         C560   1.509       .  S
N92          C96   1.364   1_655  A
N92          C93   1.366   1_655  A
C93          C94   1.380       .  A
C93         C503   1.478       .  S
C94          C95   1.352       .  A
C94          H97   1.083       .  S
C95          C96   1.385       .  A
C95          H98   1.083       .  S
C96         C536   1.481   1_455  S
O99         V107   1.920   1_556  S
O99         C109   1.269       .  A
O100        V107   1.924   1_655  S
O100        C110   1.269       .  A
O101        V107   1.900   1_556  S
O101        C111   1.263       .  A
O102        V107   1.906       .  S
O102        C112   1.265       .  A
O103        V108   1.896       .  S
O103        C112   1.263       .  A
O104        V108   1.893   1_556  S
O104        C111   1.261       .  A
O105        V108   1.891   1_655  S
O105        C110   1.262       .  A
O106        V108   1.896   1_556  S
O106        C109   1.262       .  A
V107        V108   2.086       .  T
C109        C767   1.482       .  S
C110        C551   1.489   1_554  S
C111        C512   1.464   1_455  S
C112        C479   1.476       .  S
N113        C117   1.368       .  A
N113        C114   1.372       .  A
C114        C115   1.391       .  A
C114        C488   1.505       .  S
C115        C116   1.355       .  A
C115        H118   1.081       .  S
C116        C117   1.383       .  A
C116        H119   1.082       .  S
C117        C464   1.486       .  S
N120        C124   1.368       .  A
N120        C121   1.362       .  A
C121        C122   1.382       .  A
C121        C440   1.479       .  S
C122        C123   1.352       .  A
C122        H125   1.083       .  S
C123        C124   1.387       .  A
C123        H126   1.082       .  S
C124        C407   1.483       .  S
N127        C131   1.374   1_565  A
N127        C128   1.372   1_565  A
C128        C129   1.383       .  A
C128        C392   1.494       .  S
C129        C130   1.348       .  A
C129        H132   1.082       .  S
C130        C131   1.389       .  A
C130        H133   1.082       .  S
C131        C359   1.498       .  S
O134        V142   1.900       .  S
O134        C144   1.263       .  A
O135        V142   1.898   1_665  S
O135        C145   1.264       .  A
O136        V142   1.903   1_655  S
O136        C146   1.264       .  A
O137        V142   1.905   1_565  S
O137        C147   1.265   1_565  A
O138        V143   1.891       .  S
O138        C147   1.261       .  A
O139        V143   1.891   1_655  S
O139        C146   1.263       .  A
O140        V143   1.895   1_565  S
O140        C145   1.263   1_455  A
O141        V143   1.893       .  S
O141        C144   1.262       .  A
V142        V143   2.089       .  T
C144        C455   1.466       .  S
C145        C416   1.472       .  S
C146        C368   1.470       .  S
C147        C599   1.466       .  S
N148        C152   1.365       .  A
N148        C149   1.369       .  A
C149        C150   1.383       .  A
C149        C344   1.499       .  S
C150        C151   1.361       .  A
C150        H153   1.083       .  S
C151        C152   1.384       .  A
C151        H154   1.082       .  S
C152        C320   1.499       .  S
N155        C159   1.364       .  A
N155        C156   1.370       .  A
C156        C157   1.389       .  A
C156        C272   1.489       .  S
C157        C158   1.351       .  A
C157        H160   1.082       .  S
C158        C159   1.377       .  A
C158        H161   1.083       .  S
C159        C296   1.473       .  S
N162        C166   1.362       .  A
N162        C163   1.369       .  A
C163        C164   1.388       .  A
C163        C239   1.491       .  S
C164        C165   1.353       .  A
C164        H167   1.082       .  S
C165        C166   1.382       .  A
C165        H168   1.083       .  S
C166        C215   1.480       .  S
O169        V177   1.906       .  S
O169        C179   1.265       .  A
O170        V177   1.903   1_556  S
O170        C180   1.265       .  A
O171        V177   1.915       .  S
O171        C181   1.269       .  A
O172        V177   1.917   1_565  S
O172        C182   1.269   1_554  A
O173        V178   1.910   1_566  S
O173        C182   1.267       .  A
O174        V178   1.915       .  S
O174        C181   1.268       .  A
O175        V178   1.896   1_556  S
O175        C180   1.264       .  A
O176        V178   1.898   1_565  S
O176        C179   1.263   1_565  A
V177        V178   2.078       .  T
C179        C383   1.474   1_545  S
C180        C248   1.479       .  S
C181        C575   1.499       .  S
C182        C335   1.502       .  S
O183        V191   1.902   1_545  S
O183        C193   1.265       .  A
O184        V191   1.905       .  S
O184        C194   1.264       .  A
O185        V191   1.911   1_445  S
O185        C195   1.267       .  A
O186        V191   1.907       .  S
O186        C196   1.265       .  A
O187        V192   1.891       .  S
O187        C196   1.261       .  A
O188        V192   1.895   1_455  S
O188        C195   1.262   1_565  A
O189        V192   1.897       .  S
O189        C194   1.262       .  A
O190        V192   1.898   1_545  S
O190        C193   1.264       .  A
V191        V192   2.088       .  T
C193        C527   1.481       .  S
C194        C287   1.469       .  S
C195        C671   1.477       .  S
C196        C224   1.466       .  S
O197        V205   1.898   1_556  S
O197        C207   1.264       .  A
O198        V205   1.899       .  S
O198        C208   1.263   1_455  A
O199        V205   1.890   1_655  S
O199        C209   1.261       .  A
O200        V205   1.893       .  S
O200        C210   1.261       .  A
O201        V206   1.920       .  S
O201        C210   1.269       .  A
O202        V206   1.922   1_655  S
O202        C209   1.270       .  A
O203        V206   1.901   1_655  S
O203        C208   1.263       .  A
O204        V206   1.908   1_556  S
O204        C207   1.265       .  A
V205        V206   2.086       .  T
C207        C263   1.483       .  S
C208        C431   1.467       .  S
C209        C311   1.490       .  S
C210        C719   1.482       .  S
C211        C212   1.407   1_545  A
C211        C216   1.402       .  A
C211        H221   1.082       .  S
C212        C213   1.412       .  A
C212        C217   1.488       .  S
C213        C214   1.392       .  A
C213        O218   1.370       .  S
C214        C215   1.400       .  A
C214        H219   1.084       .  S
C215        C216   1.408   1_565  A
C216        O220   1.369       .  S
C217        C222   1.410   1_565  A
C217        C226   1.408       .  A
O218        H234   0.993       .  S
O220        H231   0.990       .  S
C222        C223   1.399       .  A
C222        O227   1.369       .  S
C223        C224   1.400   1_545  A
C223        H228   1.084       .  S
C224        C225   1.402       .  A
C225        C226   1.399       .  A
C225        O229   1.369       .  S
C226        H230   1.083       .  S
O227        H232   0.992       .  S
O229        H233   0.990       .  S
C235        C236   1.397   1_565  A
C235        C240   1.396       .  A
C235        H245   1.080       .  S
C236        C237   1.405       .  A
C236        C241   1.477       .  S
C237        C238   1.405       .  A
C237        O242   1.371       .  S
C238        C239   1.409   1_545  A
C238        H243   1.080       .  S
C239        C240   1.414       .  A
C240        O244   1.372       .  S
C241        C246   1.405       .  A
C241        C250   1.402   1_545  A
O242        H258   0.990       .  S
O244        H255   0.991       .  S
C246        C247   1.398       .  A
C246        O251   1.368       .  S
C247        C248   1.405       .  A
C247        H252   1.083       .  S
C248        C249   1.411   1_545  A
C249        C250   1.401       .  A
C249        O253   1.372       .  S
C250        H254   1.084       .  S
O251        H256   0.993       .  S
O253        H257   0.992       .  S
C259        C260   1.399       .  A
C259        C264   1.401       .  A
C259        H269   1.079       .  S
C260        C261   1.408   1_455  A
C260        C265   1.480   1_455  S
C261        C262   1.403       .  A
C261        O266   1.372       .  S
C262        C263   1.405   1_655  A
C262        H267   1.083       .  S
C263        C264   1.411       .  A
C264        O268   1.371       .  S
C265        C270   1.407   1_655  A
C265        C274   1.395       .  A
O266        H282   0.991       .  S
O268        H279   0.991       .  S
C270        C271   1.408       .  A
C270        O275   1.371       .  S
C271        C272   1.408   1_455  A
C271        H276   1.083       .  S
C272        C273   1.415       .  A
C273        C274   1.393       .  A
C273        O277   1.373       .  S
C274        H278   1.079       .  S
O275        H280   0.991       .  S
O277        H281   0.994       .  S
C283        C284   1.403       .  A
C283        C288   1.400       .  A
C283        H293   1.084       .  S
C284        C285   1.407   1_655  A
C284        C289   1.480       .  S
C285        C286   1.403       .  A
C285        O290   1.370       .  S
C286        C287   1.402   1_455  A
C286        H291   1.084       .  S
C287        C288   1.404       .  A
C288        O292   1.370       .  S
C289        C294   1.408   1_655  A
C289        C298   1.402       .  A
O290        H306   0.991       .  S
O292        H303   0.993       .  S
C294        C295   1.404       .  A
C294        O299   1.371       .  S
C295        C296   1.405   1_455  A
C295        H300   1.083       .  S
C296        C297   1.409       .  A
C297        C298   1.393       .  A
C297        O301   1.374       .  S
C298        H302   1.080       .  S
O299        H304   0.992       .  S
O301        H305   0.992       .  S
C307        C308   1.410       .  A
C307        C312   1.407       .  A
C307        H317   1.083       .  S
C308        C309   1.410       .  A
C308        C313   1.499       .  S
C309        C310   1.404       .  A
C309        O314   1.374       .  S
C310        C311   1.407       .  A
C310        H315   1.084       .  S
C311        C312   1.408       .  A
C312        O316   1.371   1_554  S
C313        C318   1.411       .  A
C313        C322   1.408       .  A
O314        H330   0.992       .  S
O316        H327   0.993       .  S
C318        C319   1.400       .  A
C318        O323   1.371       .  S
C319        C320   1.408       .  A
C319        H324   1.083       .  S
C320        C321   1.412       .  A
C321        C322   1.407       .  A
C321        O325   1.370   1_554  S
C322        H326   1.083   1_554  S
O323        H328   0.990       .  S
O325        H329   0.991       .  S
C331        C332   1.406   1_554  A
C331        C336   1.409       .  A
C331        H341   1.083       .  S
C332        C333   1.408       .  A
C332        C337   1.499   1_556  S
C333        C334   1.407       .  A
C333        O338   1.369       .  S
C334        C335   1.410       .  A
C334        H339   1.083       .  S
C335        C336   1.415   1_556  A
C336        O340   1.371       .  S
C337        C342   1.411   1_554  A
C337        C346   1.403       .  A
O338        H354   0.991       .  S
O340        H351   0.992       .  S
C342        C343   1.413   1_556  A
C342        O347   1.371       .  S
C343        C344   1.409       .  A
C343        H348   1.083   1_554  S
C344        C345   1.418       .  A
C345        C346   1.403       .  A
C345        O349   1.374       .  S
C346        H350   1.081       .  S
O347        H352   0.992       .  S
O349        H353   0.990       .  S
C355        C356   1.405       .  A
C355        C360   1.410       .  A
C355        H365   1.083       .  S
C356        C357   1.401   1_565  A
C356        C361   1.481       .  S
C357        C358   1.393       .  A
C357        O362   1.371       .  S
C358        C359   1.409       .  A
C358        H363   1.083       .  S
C359        C360   1.413   1_545  A
C360        O364   1.369       .  S
C361        C366   1.405       .  A
C361        C370   1.406   1_565  A
O362        H378   0.992       .  S
O364        H375   0.991       .  S
C366        C367   1.396       .  A
C366        O371   1.365       .  S
C367        C368   1.401   1_565  A
C367        H372   1.084       .  S
C368        C369   1.406       .  A
C369        C370   1.402       .  A
C369        O373   1.371       .  S
C370        H374   1.084       .  S
O371        H376   0.992       .  S
O373        H377   0.991       .  S
C379        C380   1.404       .  A
C379        C384   1.403       .  A
C379        H389   1.081       .  S
C380        C381   1.412   1_565  A
C380        C385   1.491       .  S
C381        C382   1.403       .  A
C381        O386   1.373       .  S
C382        C383   1.400   1_545  A
C382        H387   1.084       .  S
C383        C384   1.408       .  A
C384        O388   1.372       .  S
C385        C390   1.408   1_565  A
C385        C394   1.407       .  A
O386        H402   0.992       .  S
O388        H399   0.992       .  S
C390        C391   1.397       .  A
C390        O395   1.373       .  S
C391        C392   1.405       .  A
C391        H396   1.084       .  S
C392        C393   1.412   1_545  A
C393        C394   1.412       .  A
C393        O397   1.369       .  S
C394        H398   1.083       .  S
O395        H400   0.993       .  S
O397        H401   0.992       .  S
C403        C404   1.396   1_455  A
C403        C408   1.393       .  A
C403        H413   1.080       .  S
C404        C405   1.404       .  A
C404        C409   1.472       .  S
C405        C406   1.404       .  A
C405        O410   1.371       .  S
C406        C407   1.407   1_655  A
C406        H411   1.081       .  S
C407        C408   1.411       .  A
C408        O412   1.372       .  S
C409        C414   1.405       .  A
C409        C418   1.402   1_655  A
O410        H426   0.993       .  S
O412        H423   0.987       .  S
C414        C415   1.398       .  A
C414        O419   1.369       .  S
C415        C416   1.405       .  A
C415        H420   1.083       .  S
C416        C417   1.407   1_655  A
C417        C418   1.398       .  A
C417        O421   1.372       .  S
C418        H422   1.084       .  S
O419        H424   0.991       .  S
O421        H425   0.992       .  S
C427        C428   1.408   1_455  A
C427        C432   1.398       .  A
C427        H437   1.083       .  S
C428        C429   1.410       .  A
C428        C433   1.488       .  S
C429        C430   1.403       .  A
C429        O434   1.371       .  S
C430        C431   1.402       .  A
C430        H435   1.084       .  S
C431        C432   1.402   1_655  A
C432        O436   1.372       .  S
C433        C438   1.409   1_655  A
C433        C442   1.406       .  A
O434        H450   0.993       .  S
O436        H447   0.992       .  S
C438        C439   1.391       .  A
C438        O443   1.367       .  S
C439        C440   1.398       .  A
C439        H444   1.084       .  S
C440        C441   1.410   1_455  A
C441        C442   1.405       .  A
C441        O445   1.369       .  S
C442        H446   1.083       .  S
O443        H448   0.993       .  S
O445        H449   0.991       .  S
C451        C452   1.406   1_655  A
C451        C456   1.398       .  A
C451        H461   1.084       .  S
C452        C453   1.409       .  A
C452        C457   1.484   1_455  S
C453        C454   1.400       .  A
C453        O458   1.371       .  S
C454        C455   1.401       .  A
C454        H459   1.083       .  S
C455        C456   1.403   1_455  A
C456        O460   1.372       .  S
C457        C462   1.408   1_655  A
C457        C466   1.402       .  A
O458        H474   0.991       .  S
O460        H471   0.990       .  S
C462        C463   1.403       .  A
C462        O467   1.371       .  S
C463        C464   1.405   1_455  A
C463        H468   1.079       .  S
C464        C465   1.414       .  A
C465        C466   1.394       .  A
C465        O469   1.373       .  S
C466        H470   1.083       .  S
O467        H472   0.992       .  S
O469        H473   0.992       .  S
C475        C476   1.407   1_655  A
C475        C480   1.402       .  A
C475        H485   1.084       .  S
C476        C477   1.408       .  A
C476        C481   1.488       .  S
C477        C478   1.404       .  A
C477        O482   1.370       .  S
C478        C479   1.402       .  A
C478        H483   1.084       .  S
C479        C480   1.406   1_455  A
C480        O484   1.372       .  S
C481        C486   1.402   1_455  A
C481        C490   1.406       .  A
O482        H498   0.993       .  S
O484        H495   0.992       .  S
C486        C487   1.395       .  A
C486        O491   1.370       .  S
C487        C488   1.409       .  A
C487        H492   1.083       .  S
C488        C489   1.416   1_655  A
C489        C490   1.413       .  A
C489        O493   1.369       .  S
C490        H494   1.083       .  S
O491        H496   0.992       .  S
O493        H497   0.991       .  S
C499        C500   1.404       .  A
C499        C504   1.401       .  A
C499        H509   1.083       .  S
C500        C501   1.410   1_655  A
C500        C505   1.485       .  S
C501        C502   1.397       .  A
C501        O506   1.373       .  S
C502        C503   1.403       .  A
C502        H507   1.084       .  S
C503        C504   1.408   1_455  A
C504        O508   1.369       .  S
C505        C510   1.409       .  A
C505        C514   1.407   1_655  A
O506        H522   0.989       .  S
O508        H519   0.991       .  S
C510        C511   1.400       .  A
C510        O515   1.369       .  S
C511        C512   1.401       .  A
C511        H516   1.084       .  S
C512        C513   1.402   1_655  A
C513        C514   1.397       .  A
C513        O517   1.372       .  S
C514        H518   1.084       .  S
O515        H520   0.993       .  S
O517        H521   0.990       .  S
C523        C524   1.399       .  A
C523        C528   1.404       .  A
C523        H533   1.083       .  S
C524        C525   1.406       .  A
C524        C529   1.474       .  S
C525        C526   1.399       .  A
C525        O530   1.372       .  S
C526        C527   1.404       .  A
C526        H531   1.083       .  S
C527        C528   1.413       .  A
C528        O532   1.373       .  S
C529        C534   1.401   1_655  A
C529        C538   1.401       .  A
O530        H546   0.991   1_655  S
O532        H543   0.991       .  S
C534        C535   1.393       .  A
C534        O539   1.368       .  S
C535        C536   1.403   1_455  A
C535        H540   1.084       .  S
C536        C537   1.412       .  A
C537        C538   1.404       .  A
C537        O541   1.369       .  S
C538        H542   1.083       .  S
O539        H544   0.993       .  S
O541        H545   0.990       .  S
C547        C548   1.411   1_554  A
C547        C552   1.411       .  A
C547        H557   1.083       .  S
C548        C549   1.410       .  A
C548        C553   1.499       .  S
C549        C550   1.401       .  A
C549        O554   1.374       .  S
C550        C551   1.405       .  A
C550        H555   1.084       .  S
C551        C552   1.409   1_556  A
C552        O556   1.371       .  S
C553        C558   1.409       .  A
C553        C562   1.407   1_556  A
O554        H570   0.991       .  S
O556        H567   0.991       .  S
C558        C559   1.398       .  A
C558        O563   1.372       .  S
C559        C560   1.411       .  A
C559        H564   1.080       .  S
C560        C561   1.417       .  A
C561        C562   1.410   1_556  A
C561        O565   1.371   1_556  S
C562        H566   1.083       .  S
O563        H568   0.991       .  S
O565        H569   0.992       .  S
C571        C572   1.406   1_554  A
C571        C576   1.410       .  A
C571        H581   1.084       .  S
C572        C573   1.412       .  A
C572        C577   1.502       .  S
C573        C574   1.407       .  A
C573        O578   1.374       .  S
C574        C575   1.406   1_556  A
C574        H579   1.083       .  S
C575        C576   1.414       .  A
C576        O580   1.371       .  S
C577        C582   1.406       .  A
C577        C586   1.408   1_556  A
O578        H594   0.992       .  S
O580        H591   0.990       .  S
C582        C583   1.399       .  A
C582        O587   1.373       .  S
C583        C584   1.416       .  A
C583        H588   1.078       .  S
C584        C585   1.416   1_556  A
C585        C586   1.415       .  A
C585        O589   1.369       .  S
C586        H590   1.083       .  S
O587        H592   0.989       .  S
O589        H593   0.992       .  S
C595        C596   1.401       .  A
C595        C600   1.398       .  A
C595        H605   1.080       .  S
C596        C597   1.411   1_545  A
C596        C601   1.481       .  S
C597        C598   1.399       .  A
C597        O602   1.371       .  S
C598        C599   1.399   1_565  A
C598        H603   1.084       .  S
C599        C600   1.406       .  A
C600        O604   1.372       .  S
C601        C606   1.408       .  A
C601        C610   1.402   1_545  A
O602        H618   0.991       .  S
O604        H615   0.991       .  S
C606        C607   1.403       .  A
C606        O611   1.372       .  S
C607        C608   1.405   1_545  A
C607        H612   1.081       .  S
C608        C609   1.408       .  A
C609        C610   1.394       .  A
C609        O613   1.373       .  S
C610        H614   1.081       .  S
O611        H616   0.992       .  S
O613        H617   0.992       .  S
C619        C620   1.399       .  A
C619        C624   1.395       .  A
C619        H629   1.076       .  S
C620        C621   1.408       .  A
C620        C625   1.479       .  S
C621        C622   1.404       .  A
C621        O626   1.372   1_545  S
C622        C623   1.408       .  A
C622        H627   1.083   1_545  S
C623        C624   1.410       .  A
C624        O628   1.370       .  S
C625        C630   1.402   1_545  A
C625        C634   1.404       .  A
O626        H642   0.993       .  S
O628        H639   0.990       .  S
C630        C631   1.394       .  A
C630        O635   1.369       .  S
C631        C632   1.406       .  A
C631        H636   1.084       .  S
C632        C633   1.413   1_565  A
C633        C634   1.406       .  A
C633        O637   1.370       .  S
C634        H638   1.083       .  S
O635        H640   0.992       .  S
O637        H641   0.992       .  S
C643        C644   1.403   1_545  A
C643        C648   1.400       .  A
C643        H653   1.084       .  S
C644        C645   1.407       .  A
C644        C649   1.483       .  S
C645        C646   1.405       .  A
C645        O650   1.370       .  S
C646        C647   1.404       .  A
C646        H651   1.084       .  S
C647        C648   1.407   1_565  A
C648        O652   1.372       .  S
C649        C654   1.408       .  A
C649        C658   1.401   1_565  A
O650        H666   0.991       .  S
O652        H663   0.992       .  S
C654        C655   1.407       .  A
C654        O659   1.371       .  S
C655        C656   1.406   1_565  A
C655        H660   1.083       .  S
C656        C657   1.409       .  A
C657        C658   1.395       .  A
C657        O661   1.374       .  S
C658        H662   1.079       .  S
O659        H664   0.992       .  S
O661        H665   0.991       .  S
C667        C668   1.407   1_545  A
C667        C672   1.403       .  A
C667        H677   1.083       .  S
C668        C669   1.406       .  A
C668        C673   1.486       .  S
C669        C670   1.403       .  A
C669        O674   1.371       .  S
C670        C671   1.404   1_565  A
C670        H675   1.084       .  S
C671        C672   1.406       .  A
C672        O676   1.371       .  S
C673        C678   1.405   1_565  A
C673        C682   1.406       .  A
O674        H690   0.989       .  S
O676        H687   0.992       .  S
C678        C679   1.396       .  A
C678        O683   1.369       .  S
C679        C680   1.404       .  A
C679        H684   1.084       .  S
C680        C681   1.411   1_545  A
C681        C682   1.407       .  A
C681        O685   1.370       .  S
C682        H686   1.083       .  S
O683        H688   0.992       .  S
O685        H689   0.991       .  S
C691        C692   1.406   1_556  A
C691        C696   1.410       .  A
C691        H701   1.083       .  S
C692        C693   1.411       .  A
C692        C697   1.494       .  S
C693        C694   1.404       .  A
C693        O698   1.372       .  S
C694        C695   1.403       .  A
C694        H699   1.084       .  S
C695        C696   1.411   1_554  A
C696        O700   1.371       .  S
C697        C702   1.403       .  A
C697        C706   1.410       .  A
O698        H714   0.991       .  S
O700        H711   0.993       .  S
C702        C703   1.396       .  A
C702        O707   1.372       .  S
C703        C704   1.414       .  A
C703        H708   1.082       .  S
C704        C705   1.411       .  A
C705        C706   1.415       .  A
C705        O709   1.371   1_554  S
C706        H710   1.083   1_554  S
O707        H712   0.991       .  S
O709        H713   0.991       .  S
C715        C716   1.400       .  A
C715        C720   1.402   1_554  A
C715        H725   1.080   1_554  S
C716        C717   1.411       .  A
C716        C721   1.488       .  S
C717        C718   1.407       .  A
C717        O722   1.372       .  S
C718        C719   1.403       .  A
C718        H723   1.084       .  S
C719        C720   1.410   1_554  A
C720        O724   1.371       .  S
C721        C726   1.406       .  A
C721        C730   1.403       .  A
O722        H738   0.992       .  S
O724        H735   0.990       .  S
C726        C727   1.402       .  A
C726        O731   1.372       .  S
C727        C728   1.411       .  A
C727        H732   1.082       .  S
C728        C729   1.416       .  A
C729        C730   1.406       .  A
C729        O733   1.371   1_554  S
C730        H734   1.083   1_554  S
O731        H736   0.992       .  S
O733        H737   0.991       .  S
C739        C740   1.406       .  A
C739        C744   1.404       .  A
C739        H749   1.082       .  S
C740        C741   1.417   1_556  A
C740        C745   1.512       .  S
C741        C742   1.415   1_554  A
C741        O746   1.373       .  S
C742        C743   1.407       .  A
C742        H747   1.083   1_556  S
C743        C744   1.414       .  A
C744        O748   1.375       .  S
C745        C750   1.417       .  A
C745        C754   1.408       .  A
O746        H762   0.992       .  S
O748        H759   0.992       .  S
C750        C751   1.410       .  A
C750        O755   1.371   1_556  S
C751        C752   1.407       .  A
C751        H756   1.083   1_556  S
C752        C753   1.412       .  A
C753        C754   1.403       .  A
C753        O757   1.372       .  S
C754        H758   1.081       .  S
O755        H760   0.991   1_554  S
O757        H761   0.991       .  S
C763        C764   1.403   1_554  A
C763        C768   1.405       .  A
C763        H773   1.082       .  S
C764        C765   1.413       .  A
C764        C769   1.495       .  S
C765        C766   1.408       .  A
C765        O770   1.372       .  S
C766        C767   1.402       .  A
C766        H771   1.084       .  S
C767        C768   1.409   1_556  A
C768        O772   1.372       .  S
C769        C774   1.407       .  A
C769        C778   1.407   1_556  A
O770        H786   0.993       .  S
O772        H783   0.990       .  S
C774        C775   1.402       .  A
C774        O779   1.373       .  S
C775        C776   1.410       .  A
C775        H780   1.083       .  S
C776        C777   1.414   1_556  A
C777        C778   1.410       .  A
C777        O781   1.370       .  S
C778        H782   1.083       .  S
O779        H784   0.992       .  S
O781        H785   0.992       .  S
