geometry optimzed in LAMMPS
_audit_creation_date              2020-11-30 
_audit_creation_method            'lammps2cif' 
_symmetry_space_group_name_H-M    'P1' 
_symmetry_Int_Tables_number       1 
_symmetry_cell_setting            triclinic 
loop_ 
_symmetry_equiv_pos_as_xyz 
  x,y,z 
_cell_length_a                    53.86303464 
_cell_length_b                    53.7640114597877 
_cell_length_c                    53.895503626494346 
_cell_angle_alpha                 89.96588606445722 
_cell_angle_beta                  89.94123786189196 
_cell_angle_gamma                 90.17129019507624 
loop_ 
_atom_site_label 
_atom_site_type_symbol 
_atom_site_fract_x 
_atom_site_fract_y 
_atom_site_fract_z 
_atom_site_charge 
N1          N  0.45784269  0.66105172  0.99606286    -0.26500
N2          N  0.44545500  0.64014563  0.99976738    -0.34300
C3          C  0.42123564  0.64595665  0.00313866     0.01900
C4          C  0.41856031  0.67178202  0.00144126     0.07900
C5          C  0.44231528  0.68045182  0.99709308    -0.05200
H6          H  0.40677689  0.63244687  0.00680532     0.08500
H7          H  0.44796102  0.69958909  0.99438740     0.09700
Cu8        Cu  0.46402276  0.60548436  0.99959836     0.44200
Cu9        Cu  0.49534839  0.66328253  0.98999959     0.42000
Cu10       Cu  0.53356014  0.61019825  0.99528380     0.43900
N11         N  0.48869010  0.57487473  0.99802365    -0.33900
N12         N  0.51324421  0.57662674  0.99655244    -0.28100
C13         C  0.52292715  0.55347906  0.99604771    -0.04200
C14         C  0.50377654  0.53620812  0.99724666     0.08000
C15         C  0.48236926  0.55052803  0.99844279     0.01800
H16         H  0.54258849  0.54950440  0.99494133     0.09400
H17         H  0.46347737  0.54370673  0.99967616     0.08500
N18         N  0.54809514  0.64656124  0.99313864    -0.35300
N19         N  0.53330858  0.66582941  0.98994250    -0.27500
C20         C  0.54665768  0.68693564  0.99010343    -0.02700
C21         C  0.57131216  0.68099538  0.99366186     0.05900
C22         C  0.57156880  0.65514140  0.99573126     0.04000
H23         H  0.53871236  0.70537297  0.98939991     0.09100
H24         H  0.58750440  0.64357889  0.99955649     0.07900
N25         N  0.47438626  0.37891600  0.00159164    -0.26500
N26         N  0.46012895  0.39884873  0.00193919    -0.34300
C27         C  0.43622624  0.39135209  0.00390496     0.01900
C28         C  0.43558810  0.36541962  0.00488093     0.07900
C29         C  0.46021769  0.35839612  0.00321135    -0.05200
H30         H  0.42053042  0.40384749  0.00437940     0.08500
H31         H  0.46743844  0.33965816  0.00370858     0.09700
Cu32       Cu  0.47544995  0.43485144  0.00009597     0.44200
Cu33       Cu  0.51259084  0.38014162  0.99985368     0.42000
Cu34       Cu  0.54474420  0.43877084  0.99888172     0.43900
N35         N  0.49598666  0.46821217  0.99870070    -0.33900
N36         N  0.52057957  0.46977336  0.99832231    -0.28100
C37         C  0.52709378  0.49407846  0.99759284    -0.04200
C38         C  0.50572985  0.50853674  0.99755786     0.08000
C39         C  0.48644855  0.49139932  0.99825595     0.01800
H40         H  0.54606487  0.50077319  0.99724916     0.09400
H41         H  0.46678269  0.49549493  0.99851361     0.08500
N42         N  0.56317799  0.40406935  0.99841055    -0.35300
N43         N  0.55074715  0.38285295  0.99868796    -0.27500
C44         C  0.56668426  0.36373364  0.99753997    -0.02700
C45         C  0.59066958  0.37295650  0.99632878     0.05900
C46         C  0.58768413  0.39877389  0.99709775     0.04000
H47         H  0.56107196  0.34440961  0.99695207     0.09100
H48         H  0.60217756  0.41272649  0.99684505     0.07900
N49         N  0.63693175  0.03543217  0.45512868    -0.26500
N50         N  0.61583634  0.03234899  0.44309248    -0.34300
C51         C  0.62093622  0.03086941  0.41854716     0.01900
C52         C  0.64660448  0.03295694  0.41518531     0.07900
C53         C  0.65584772  0.03585494  0.43896656    -0.05200
H54         H  0.60696783  0.02864411  0.40433675     0.08500
H55         H  0.67512160  0.03747455  0.44433458     0.09700
Cu56       Cu  0.58209871  0.02973952  0.46263535     0.44200
Cu57       Cu  0.63978022  0.03737414  0.49311838     0.42000
Cu58       Cu  0.58720348  0.02753434  0.53228436     0.43900
N59         N  0.55195495  0.02790763  0.48748922    -0.33900
N60         N  0.55356407  0.02728488  0.51206347    -0.28100
C61         C  0.53034149  0.02636698  0.52158534    -0.04200
C62         C  0.51332104  0.02634193  0.50223350     0.08000
C63         C  0.52778678  0.02733332  0.48097298     0.01800
H64         H  0.52614193  0.02570971  0.54122016     0.09400
H65         H  0.52120599  0.02766279  0.46200938     0.08500
N66         N  0.62398338  0.02843318  0.54585946    -0.35300
N67         N  0.64286899  0.03297978  0.53087846    -0.27500
C68         C  0.66423915  0.03165482  0.54356385    -0.02700
C69         C  0.65902002  0.02540661  0.56792196     0.05900
C70         C  0.63313392  0.02391092  0.56879612     0.04000
H71         H  0.68228140  0.03475867  0.53534743     0.09100
H72         H  0.62190548  0.01904409  0.58471820     0.07900
N73         N  0.35745367  0.02923604  0.47084716    -0.26500
N74         N  0.37682043  0.02485136  0.45651166    -0.34300
C75         C  0.36849973  0.02095900  0.43314396     0.01900
C76         C  0.34263252  0.02266914  0.43314641     0.07900
C77         C  0.33656008  0.02833709  0.45739849    -0.05200
H78         H  0.38024909  0.01653360  0.41749206     0.08500
H79         H  0.31824368  0.03142785  0.46496536     0.09700
Cu80       Cu  0.41284902  0.02377566  0.47176502     0.44200
Cu81       Cu  0.35939217  0.03327703  0.50856814     0.42000
Cu82       Cu  0.41577698  0.02484586  0.54165295     0.43900
N83         N  0.44570292  0.02437062  0.49311873    -0.33900
N84         N  0.44678107  0.02462724  0.51773103    -0.28100
C85         C  0.47086390  0.02524522  0.52471119    -0.04200
C86         C  0.48572272  0.02545097  0.50366682     0.08000
C87         C  0.46906596  0.02488064  0.48405002     0.01800
H88         H  0.47710831  0.02570854  0.54378823     0.09400
H89         H  0.47360777  0.02493947  0.46447951     0.08500
N90         N  0.38096976  0.02665998  0.55938980    -0.35300
N91         N  0.36052239  0.03022147  0.54642377    -0.27500
C92         C  0.34077007  0.02991517  0.56153392    -0.02700
C93         C  0.34875119  0.02596902  0.58557042     0.05900
C94         C  0.37455582  0.02410340  0.58352484     0.04000
H95         H  0.32179538  0.03161373  0.55522228     0.09100
H96         H  0.38772959  0.02121088  0.59835934     0.07900
O97         O  0.74514602  0.06907136  0.98685066    -0.72100
O98         O  0.73924919  0.99456276  0.98985673    -0.73100
O99         O  0.74033048  0.03348824  0.02566108    -0.61700
O100        O  0.74528100  0.02972376  0.95100653    -0.70200
O101        O  0.78601382  0.02598646  0.95408134    -0.69700
O102        O  0.78137699  0.03187086  0.02786489    -0.61000
O103        O  0.77999665  0.99111617  0.99379352    -0.73500
O104        O  0.78616994  0.06696682  0.98827232    -0.72200
Cu105      Cu  0.74113024  0.03186935  0.98820730     1.04600
Cu106      Cu  0.78482928  0.02891092  0.99106481     1.04300
C107        C  0.76625131  0.07996567  0.98733213     0.94100
C108        C  0.75844588  0.98093425  0.99243979     0.93200
C109        C  0.76027186  0.03317559  0.03855361     0.85300
C110        C  0.76648252  0.02670686  0.94070911     0.91600
N111        N  0.75817699  0.01461210  0.24319985    -0.02700
C112        C  0.74207525  0.00558858  0.26052453    -0.00100
C113        C  0.72073369  0.99688055  0.24916841    -0.23000
C114        C  0.72353451  0.00071292  0.22424254    -0.23200
C115        C  0.74654669  0.01155148  0.22108439    -0.00200
H116        H  0.70391685  0.99065714  0.25830419     0.13600
H117        H  0.70975998  0.99723000  0.21004476     0.13600
N118        N  0.76465706  0.26699560  0.96675527    -0.02700
C119        C  0.74668504  0.28263694  0.95821148    -0.00100
C120        C  0.75746655  0.30371486  0.94805971    -0.23000
C121        C  0.78263162  0.30128707  0.95062917    -0.23200
C122        C  0.78654564  0.27871319  0.96206269    -0.00200
H123        H  0.74791271  0.32022117  0.94171897     0.13600
H124        H  0.79652124  0.31514052  0.94605641     0.13600
O125        O  0.00204041  0.98245426  0.77636154    -0.72100
O126        O  0.00537739  0.05604023  0.77815319    -0.73100
O127        O  0.96587552  0.02070768  0.77492317    -0.61700
O128        O  0.04154957  0.01781305  0.77815624    -0.70200
O129        O  0.04263110  0.01871951  0.73709873    -0.69700
O130        O  0.96849955  0.02195564  0.73398502    -0.61000
O131        O  0.00754281  0.05768117  0.73719686    -0.73500
O132        O  0.00359639  0.98259196  0.73537229    -0.72200
Cu133      Cu  0.00364107  0.01921540  0.77830979     1.04600
Cu134      Cu  0.00561870  0.02024895  0.73449832     1.04300
C135        C  0.00200075  0.97062919  0.75587180     0.94100
C136        C  0.00745064  0.06868026  0.75827314     0.93200
C137        C  0.95526433  0.02165522  0.75364767     0.85300
C138        C  0.05399216  0.01823371  0.75785021     0.91600
N139        N  0.02965504  0.27387158  0.76284141    -0.02700
C140        C  0.03651936  0.29249804  0.74718539    -0.00100
C141        C  0.04511561  0.28285088  0.72499403    -0.23000
C142        C  0.04378249  0.25752599  0.72692933    -0.23200
C143        C  0.03445709  0.25261875  0.75022553    -0.00200
H144        H  0.05010000  0.29323940  0.70850357     0.13600
H145        H  0.04807794  0.24414457  0.71257251     0.13600
N146        N  0.23891685  0.99254683  0.75466079    -0.02700
C147        C  0.25420201  0.98590176  0.73579021    -0.00100
C148        C  0.27385649  0.97199888  0.74462245    -0.23000
C149        C  0.27052903  0.96971357  0.76972822    -0.23200
C150        C  0.24896438  0.98233346  0.77534357    -0.00200
H151        H  0.28965911  0.96545347  0.73409088     0.13600
H152        H  0.28307697  0.96086085  0.78265471     0.13600
O153        O  0.26471440  0.04778396  0.00757935    -0.72100
O154        O  0.25875120  0.97322419  0.00952493    -0.73100
O155        O  0.26302447  0.00953555  0.97102509    -0.61700
O156        O  0.25890234  0.01161705  0.04622578    -0.70200
O157        O  0.21794411  0.01361070  0.04318323    -0.69700
O158        O  0.22216496  0.01367486  0.96990967    -0.61000
O159        O  0.21790035  0.97568870  0.00637231    -0.73500
O160        O  0.22376089  0.05157082  0.00685017    -0.72200
Cu161      Cu  0.26279607  0.01044141  0.00869937     1.04600
Cu162      Cu  0.21906648  0.01375325  0.00650481     1.04300
C163        C  0.24543387  0.06153271  0.00694983     0.94100
C164        C  0.23762876  0.96246176  0.00791767     0.93200
C165        C  0.24282991  0.01153184  0.95863525     0.85300
C166        C  0.23744913  0.01277275  0.05648189     0.91600
O167        O  0.95889307  0.02243132  0.22109435    -0.72100
O168        O  0.03466347  0.02018967  0.22631904    -0.73100
O169        O  0.99548124  0.98441860  0.22273375    -0.61700
O170        O  0.99806232  0.05800973  0.22295843    -0.70200
O171        O  0.99532790  0.05878500  0.26392182    -0.69700
O172        O  0.99258098  0.98314070  0.26364038    -0.61000
O173        O  0.03115765  0.01987861  0.26716539    -0.73500
O174        O  0.95696533  0.02222853  0.26204520    -0.72200
Cu175      Cu  0.99690885  0.02124771  0.22190032     1.04600
Cu176      Cu  0.99394556  0.02099989  0.26562613     1.04300
C177        C  0.94593548  0.02265609  0.24108560     0.94100
C178        C  0.04487452  0.01988716  0.24782203     0.93200
C179        C  0.99348410  0.97187941  0.24268419     0.85300
C180        C  0.99709187  0.07026208  0.24312488     0.91600
O181        O  0.01852869  0.24499044  0.96196750    -0.72100
O182        O  0.01611595  0.24462964  0.03792207    -0.73100
O183        O  0.98022720  0.24595609  0.99876174    -0.61700
O184        O  0.05411575  0.24242751  0.00108361    -0.70200
O185        O  0.05691025  0.28349861  0.00145974    -0.69700
O186        O  0.98162845  0.28705081  0.99914638    -0.61000
O187        O  0.01830133  0.28567112  0.03763685    -0.73500
O188        O  0.02042174  0.28606430  0.96303898    -0.72200
Cu189      Cu  0.01716703  0.24309737  0.99994131     1.04600
Cu190      Cu  0.01937965  0.28697881  0.00033664     1.04300
C191        C  0.01970910  0.26590514  0.95052765     0.94100
C192        C  0.01696929  0.26529656  0.04979503     0.93200
C193        C  0.96900772  0.26680425  0.99849180     0.85300
C194        C  0.06735434  0.26211346  0.00155604     0.91600
N195        N  0.99471875  0.27609630  0.23569908    -0.02700
C196        C  0.99333442  0.29490911  0.25241289    -0.00100
C197        C  0.98369924  0.28641985  0.27465790    -0.23000
C198        C  0.97897854  0.26156001  0.27170369    -0.23200
C199        C  0.98595959  0.25573561  0.24778637    -0.00200
H200        H  0.98152117  0.29699838  0.29160006     0.13600
H201        H  0.97253464  0.24879873  0.28586947     0.13600
N202        N  0.23078907  0.00567036  0.26161765    -0.02700
C203        C  0.24885564  0.99887471  0.27792903    -0.00100
C204        C  0.27015206  0.99206217  0.26529391    -0.23000
C205        C  0.26513568  0.99432988  0.24053003    -0.23200
C206        C  0.24101775  0.00261003  0.23882839    -0.00200
H207        H  0.28775574  0.98672775  0.27334381     0.13600
H208        H  0.27769999  0.99043949  0.22534513     0.13600
N209        N  0.27033285  0.24552430  0.03090036    -0.02700
C210        C  0.28839758  0.25993620  0.04140089    -0.00100
C211        C  0.27773411  0.27842373  0.05573321    -0.23000
C212        C  0.25255901  0.27563196  0.05398723    -0.23200
C213        C  0.24858430  0.25549691  0.03873338    -0.00200
H214        H  0.28725107  0.29386100  0.06447556     0.13600
H215        H  0.23863027  0.28788053  0.06169200     0.13600
O216        O  0.94805546  0.75354495  0.00009670    -0.72100
O217        O  0.02335121  0.75331195  0.99722646    -0.73100
O218        O  0.98700500  0.75213868  0.03580377    -0.61700
O219        O  0.98461258  0.75337659  0.96140453    -0.70200
O220        O  0.98533895  0.79448403  0.96110593    -0.69700
O221        O  0.98660529  0.79327881  0.03697537    -0.61000
O222        O  0.02284841  0.79450730  0.99807567    -0.73500
O223        O  0.94914506  0.79475958  0.99974046    -0.72200
Cu224      Cu  0.98573611  0.75166654  0.99861177     1.04600
Cu225      Cu  0.98599579  0.79566764  0.99902649     1.04300
C226        C  0.93680403  0.77451200  0.00025316     0.94100
C227        C  0.03489091  0.77418306  0.99687034     0.93200
C228        C  0.98703953  0.77227941  0.04832482     0.85300
C229        C  0.98489975  0.77380028  0.94926424     0.91600
N230        N  0.96149667  0.76768321  0.23374366    -0.02700
C231        C  0.95360620  0.75057620  0.25064495    -0.00100
C232        C  0.94444373  0.76229132  0.27156670    -0.23000
C233        C  0.94628067  0.78732128  0.26743150    -0.23200
C234        C  0.95656906  0.79013852  0.24415450    -0.00200
H235        H  0.93804462  0.75348990  0.28848205     0.13600
H236        H  0.94134493  0.80195616  0.28028870     0.13600
N237        N  0.24072186  0.77460097  0.99484876    -0.02700
C238        C  0.25896654  0.75719838  0.99368400    -0.00100
C239        C  0.24910866  0.73426053  0.98747758    -0.23000
C240        C  0.22407409  0.73749908  0.98455325    -0.23200
C241        C  0.21948828  0.76230481  0.98908707    -0.00200
H242        H  0.25912986  0.71694361  0.98557171     0.13600
H243        H  0.21056870  0.72324772  0.98009619     0.13600
N244        N  0.96903636  0.76654778  0.76298335    -0.02700
C245        C  0.96005419  0.74936513  0.74670884    -0.00100
C246        C  0.94964132  0.76101260  0.72634902    -0.23000
C247        C  0.95245961  0.78605148  0.72986046    -0.23200
C248        C  0.96437345  0.78889014  0.75228112    -0.00200
H249        H  0.94258993  0.75214066  0.70975496     0.13600
H250        H  0.94758576  0.80060365  0.71687976     0.13600
N251        N  0.77173213  0.99804746  0.73682068    -0.02700
C252        C  0.75460581  0.98959449  0.72023535    -0.00100
C253        C  0.73424134  0.97994266  0.73271386    -0.23000
C254        C  0.73891268  0.98228122  0.75757035    -0.23200
C255        C  0.76192472  0.99331608  0.75953469    -0.00200
H256        H  0.71708798  0.97334532  0.72455809     0.13600
H257        H  0.72643057  0.97751371  0.77259604     0.13600
N258        N  0.73539171  0.79842109  0.03021957    -0.02700
C259        C  0.71609239  0.78557636  0.04051438    -0.00100
C260        C  0.72481117  0.76871526  0.05782688    -0.23000
C261        C  0.75013621  0.77077412  0.05801858    -0.23200
C262        C  0.75609430  0.78892421  0.04094101    -0.00200
H263        H  0.71407919  0.75454959  0.06731131     0.13600
H264        H  0.76292288  0.75896587  0.06802390     0.13600
N265        N  0.00246318  0.48285863  0.63828778    -0.26500
N266        N  0.00611032  0.46869704  0.61862603    -0.34300
C267        C  0.00863539  0.44492751  0.62652628     0.01900
C268        C  0.00594809  0.44444510  0.65229235     0.07900
C269        C  0.00233955  0.46893015  0.65889570    -0.05200
H270        H  0.01193405  0.42917358  0.61450759     0.08500
H271        H  0.00028699  0.47630263  0.67744855     0.09700
Cu272      Cu  0.00664784  0.48452461  0.58270136     0.44200
Cu273      Cu  0.99831881  0.52056686  0.63720105     0.42000
Cu274      Cu  0.99632825  0.55431604  0.58158954     0.43900
N275        N  0.00473919  0.50695783  0.55045140    -0.33900
N276        N  0.00074810  0.53132997  0.55027543    -0.28100
C277        C  0.00043369  0.53933088  0.52656264    -0.04200
C278        C  0.00450574  0.51933300  0.51090173     0.08000
C279        C  0.00715549  0.49911334  0.52673255     0.01800
H280        H  0.99760588  0.55849683  0.52111535     0.09400
H281        H  0.01054166  0.48002136  0.52138447     0.08500
N282        N  0.99372927  0.57179975  0.61639210    -0.35300
N283        N  0.99478192  0.55835149  0.63682708    -0.27500
C284        C  0.99305940  0.57310554  0.65674010    -0.02700
C285        C  0.99063255  0.59739678  0.64884879     0.05900
C286        C  0.99117701  0.59593606  0.62296695     0.04000
H287        H  0.99318098  0.56646670  0.67570598     0.09100
H288        H  0.99018738  0.61120929  0.60993298     0.07900
N289        N  0.01540365  0.48664025  0.35581187    -0.26500
N290        N  0.01957766  0.47257316  0.37540824    -0.34300
C291        C  0.02403563  0.44917519  0.36738149     0.01900
C292        C  0.02271261  0.44886783  0.34147302     0.07900
C293        C  0.01689223  0.47302236  0.33509803    -0.05200
H294        H  0.02736117  0.43346413  0.37945031     0.08500
H295        H  0.01258342  0.48013738  0.31686055     0.09700
Cu296      Cu  0.01652664  0.48763833  0.41137466     0.44200
Cu297      Cu  0.00602420  0.52330212  0.35723695     0.42000
Cu298      Cu  0.99838790  0.55597540  0.41281648     0.43900
N299        N  0.01017582  0.50894861  0.44363745    -0.33900
N300        N  0.00396429  0.53284610  0.44405193    -0.28100
C301        C  0.00121384  0.53998369  0.46789128    -0.04200
C302        C  0.00573507  0.51984154  0.48331149     0.08000
C303        C  0.01136669  0.50051340  0.46723787     0.01800
H304        H  0.99601635  0.55855342  0.47359563     0.09400
H305        H  0.01593549  0.48159440  0.47232745     0.08500
N306        N  0.99343563  0.57311409  0.37792028    -0.35300
N307        N  0.99636116  0.55992020  0.35752067    -0.27500
C308        C  0.99218294  0.57409428  0.33754206    -0.02700
C309        C  0.98632679  0.59781086  0.34530340     0.05900
C310        C  0.98725119  0.59656539  0.37121725     0.04000
H311        H  0.99366501  0.56756889  0.31861263     0.09100
H312        H  0.98334086  0.61138898  0.38418099     0.07900
C313        C  0.95178547  0.68328780  0.72832613    -0.01200
C314        C  0.97581312  0.67781478  0.71944925     0.07400
C315        C  0.99556812  0.69361637  0.72597528    -0.07200
C316        C  0.99125918  0.71587421  0.73886336     0.04800
C317        C  0.96676881  0.72272810  0.74516866    -0.14400
C318        C  0.94744184  0.70566159  0.74091707    -0.07700
C319        C  0.98020709  0.65732915  0.70130674     0.05800
C320        C  0.96825268  0.65813188  0.67812365    -0.08900
C321        C  0.97190836  0.63940214  0.66033919     0.00800
C322        C  0.98787507  0.61927549  0.66561773     0.00600
C323        C  0.00019436  0.61885392  0.68867090    -0.12400
C324        C  0.99654924  0.63758122  0.70637197     0.01100
C325        C  0.95812137  0.64079997  0.63744024     0.40400
C326        C  0.00918392  0.63572649  0.72990625     0.37000
C327        C  0.93112188  0.66675092  0.72375643     0.36800
C328        C  0.01183472  0.73269202  0.74272271     0.37500
N329        N  0.94701744  0.64201703  0.61910750    -0.43300
N330        N  0.01930823  0.63428105  0.74877711    -0.43700
N331        N  0.02835738  0.74614867  0.74577443    -0.41100
N332        N  0.91457452  0.65345071  0.72019377    -0.42500
H333        H  0.92852822  0.71082881  0.74547505     0.13600
H334        H  0.01415754  0.68943821  0.71946268     0.10100
H335        H  0.95586122  0.67344984  0.67396753     0.11200
H336        H  0.01264347  0.60365556  0.69303774     0.17000
C337        C  0.96426008  0.63252678  0.28806998    -0.01200
C338        C  0.97252047  0.65700341  0.29257136     0.07400
C339        C  0.98430496  0.66231132  0.31525017    -0.07200
C340        C  0.98842615  0.64367187  0.33304492     0.04800
C341        C  0.98055130  0.61902335  0.32838329    -0.14400
C342        C  0.96834605  0.61389594  0.30581916    -0.07700
C343        C  0.96805326  0.67773373  0.27465320     0.05800
C344        C  0.94353763  0.68460672  0.26922636    -0.08900
C345        C  0.93844570  0.70714166  0.25721128     0.00800
C346        C  0.95804050  0.72340427  0.25067811     0.00600
C347        C  0.98257679  0.71513915  0.25331383    -0.12400
C348        C  0.98770114  0.69247138  0.26522905     0.01100
C349        C  0.91286535  0.71437020  0.25383356     0.40400
C350        C  0.01325429  0.68530607  0.26877685     0.37000
C351        C  0.95214583  0.62590436  0.26510870     0.36800
C352        C  0.00182348  0.65024129  0.35526988     0.37500
N353        N  0.89238793  0.72021954  0.25111984    -0.43300
N354        N  0.03371713  0.67947105  0.27162144    -0.43700
N355        N  0.01262528  0.65565294  0.37302560    -0.41100
N356        N  0.94240891  0.62057210  0.24672611    -0.42500
H357        H  0.96203392  0.59514502  0.30189991     0.13600
H358        H  0.99039566  0.68117854  0.31904021     0.10100
H359        H  0.92827618  0.67326382  0.27598715     0.11200
H360        H  0.99777931  0.72749804  0.24845351     0.17000
C361        C  0.15722602  0.77996949  0.01453000    -0.01200
C362        C  0.14233913  0.77818812  0.99305458     0.07400
C363        C  0.15377315  0.77571186  0.96979586    -0.07200
C364        C  0.17950494  0.77276044  0.96794836     0.04800
C365        C  0.19415048  0.77257520  0.98958315    -0.14400
C366        C  0.18300573  0.77712238  0.01264199    -0.07700
C367        C  0.11483746  0.77709927  0.99444881     0.05800
C368        C  0.10092282  0.79600688  0.98332752    -0.08900
C369        C  0.07494284  0.79520113  0.98351238     0.00800
C370        C  0.06237547  0.77512161  0.99515681     0.00600
C371        C  0.07640787  0.75585875  0.00568164    -0.12400
C372        C  0.10240848  0.75666430  0.00535261     0.01100
C373        C  0.06177420  0.81471076  0.97065811     0.40400
C374        C  0.11597395  0.73600443  0.01572642     0.37000
C375        C  0.14634938  0.78373274  0.03872697     0.36800
C376        C  0.19045327  0.76882666  0.94380895     0.37500
N377        N  0.05124388  0.83028692  0.96026534    -0.43300
N378        N  0.12691950  0.71949033  0.02402536    -0.43700
N379        N  0.19933706  0.76568654  0.92450964    -0.41100
N380        N  0.13760012  0.78667806  0.05811960    -0.42500
H381        H  0.19420586  0.77678769  0.02933305     0.13600
H382        H  0.14244760  0.77476590  0.95319668     0.10100
H383        H  0.11043774  0.81137919  0.97432523     0.11200
H384        H  0.06705898  0.74023278  0.01440950     0.17000
C385        C  0.99595619  0.76215083  0.17332986    -0.01200
C386        C  0.97637424  0.76458753  0.15597656     0.07400
C387        C  0.95184764  0.76508878  0.16488772    -0.07200
C388        C  0.94678229  0.76465465  0.19041042     0.04800
C389        C  0.96635977  0.76375669  0.20770293    -0.14400
C390        C  0.99082901  0.76205641  0.19897644    -0.07700
C391        C  0.98083367  0.76750128  0.12862116     0.05800
C392        C  0.99274609  0.74855012  0.11527662    -0.08900
C393        C  0.99593754  0.75019094  0.08941387     0.00800
C394        C  0.98667690  0.77099491  0.07611306     0.00600
C395        C  0.97557342  0.79034054  0.08966620    -0.12400
C396        C  0.97265088  0.78878023  0.11555372     0.01100
C397        C  0.00943816  0.73050934  0.07720339     0.40400
C398        C  0.96138485  0.80943993  0.12839181     0.37000
C399        C  0.02147598  0.76065165  0.16533661     0.36800
C400        C  0.92132475  0.76589144  0.19862226     0.37500
N401        N  0.02041951  0.71480314  0.06749307    -0.43300
N402        N  0.95238739  0.82596078  0.13876860    -0.43700
N403        N  0.90089284  0.76679325  0.20520599    -0.41100
N404        N  0.04193225  0.75922970  0.15892199    -0.42500
H405        H  0.00593147  0.76141361  0.21223804     0.13600
H406        H  0.93659684  0.76635579  0.15182573     0.10100
H407        H  0.99935438  0.73224696  0.12507089     0.11200
H408        H  0.96858534  0.80653756  0.07996413     0.17000
C409        C  0.81243798  0.78015884  0.00084897    -0.01200
C410        C  0.83169622  0.78641903  0.01739663     0.07400
C411        C  0.82580669  0.79664490  0.04060506    -0.07200
C412        C  0.80102377  0.79949836  0.04794085     0.04800
C413        C  0.78173554  0.79238007  0.03177404    -0.14400
C414        C  0.78765003  0.78335048  0.00806980    -0.07700
C415        C  0.85810204  0.78171495  0.01125415     0.05800
C416        C  0.87048432  0.79805424  0.99521924    -0.08900
C417        C  0.89588651  0.79531034  0.99045220     0.00800
C418        C  0.90935709  0.77583707  0.00189625     0.00600
C419        C  0.89657806  0.75872820  0.01694763    -0.12400
C420        C  0.87115688  0.76160238  0.02177139     0.01100
C421        C  0.90757964  0.81261211  0.97354037     0.40400
C422        C  0.85883491  0.74389093  0.03776240     0.37000
C423        C  0.81769808  0.76884729  0.97713938     0.36800
C424        C  0.79572711  0.80908664  0.07238193     0.37500
N425        N  0.91693396  0.82645001  0.95995962    -0.43300
N426        N  0.84888928  0.72970109  0.05053639    -0.43700
N427        N  0.79138771  0.81676384  0.09196010    -0.41100
N428        N  0.82197500  0.75962113  0.95822376    -0.42500
H429        H  0.77292492  0.77719080  0.99584363     0.13600
H430        H  0.84061723  0.80168327  0.05327555     0.10100
H431        H  0.86034607  0.81327527  0.98678652     0.11200
H432        H  0.90664100  0.74368256  0.02576342     0.17000
C433        C  0.98938499  0.74713229  0.88388142    -0.01200
C434        C  0.98470440  0.76788555  0.86867358     0.07400
C435        C  0.98062087  0.79107777  0.87993192    -0.07200
C436        C  0.98071772  0.79373243  0.90594425     0.04800
C437        C  0.98503475  0.77278824  0.92137728    -0.14400
C438        C  0.98953972  0.74969044  0.90979301    -0.07700
C439        C  0.98241318  0.76542241  0.84113752     0.05800
C440        C  0.96091855  0.75445259  0.83129127    -0.08900
C441        C  0.95692072  0.75350122  0.80557806     0.00800
C442        C  0.97488344  0.76313718  0.78899448     0.00600
C443        C  0.99682411  0.77335557  0.79885950    -0.12400
C444        C  0.00064662  0.77464414  0.82466883     0.01100
C445        C  0.93323870  0.74459291  0.79677509     0.40400
C446        C  0.02318239  0.78584884  0.83391407     0.37000
C447        C  0.99430946  0.72299758  0.87326118     0.36800
C448        C  0.97560568  0.81803398  0.91605127     0.37500
N449        N  0.91413518  0.73764129  0.78978583    -0.43300
N450        N  0.04122842  0.79483139  0.84140369    -0.43700
N451        N  0.97146615  0.83758074  0.92400271    -0.41100
N452        N  0.99833563  0.70365912  0.86477057    -0.42500
H453        H  0.99321847  0.73335934  0.92099743     0.13600
H454        H  0.97682347  0.80710210  0.86831558     0.10100
H455        H  0.94671084  0.74753866  0.84382229     0.11200
H456        H  0.01059446  0.78110971  0.78635674     0.17000
C457        C  0.01280098  0.38373071  0.31634500    -0.01200
C458        C  0.01955491  0.38639533  0.29117718     0.07400
C459        C  0.02888709  0.40919324  0.28282752    -0.07200
C460        C  0.03109479  0.42948119  0.29903959     0.04800
C461        C  0.02352682  0.42718135  0.32422152    -0.14400
C462        C  0.01490820  0.40396542  0.33260305    -0.07700
C463        C  0.01655493  0.36543804  0.27349941     0.05800
C464        C  0.99424053  0.36317563  0.26027180    -0.08900
C465        C  0.98789213  0.34065158  0.24875055     0.00800
C466        C  0.00398451  0.32011666  0.25048703     0.00600
C467        C  0.02765102  0.32352546  0.26087636    -0.12400
C468        C  0.03397350  0.34597301  0.27251908     0.01100
C469        C  0.96370170  0.33808476  0.23753051     0.40400
C470        C  0.05743685  0.34787768  0.28530962     0.37000
C471        C  0.00298580  0.36052191  0.32570023     0.36800
C472        C  0.04170960  0.45213847  0.28924020     0.37500
N473        N  0.94435688  0.33595748  0.22844346    -0.43300
N474        N  0.07621469  0.34950101  0.29560440    -0.43700
N475        N  0.05016165  0.47023297  0.28115913    -0.41100
N476        N  0.99508972  0.34191058  0.33313028    -0.42500
H477        H  0.00893648  0.40178615  0.35170184     0.13600
H478        H  0.03441210  0.41113707  0.26355609     0.10100
H479        H  0.98095141  0.37827098  0.26066389     0.11200
H480        H  0.03999837  0.30772058  0.26257640     0.17000
C481        C  0.19189674  0.25915521  0.99877070    -0.01200
C482        C  0.17335214  0.25121719  0.01547370     0.07400
C483        C  0.18024123  0.24074100  0.03828355    -0.07200
C484        C  0.20524294  0.23971531  0.04529997     0.04800
C485        C  0.22366270  0.24918268  0.02930058    -0.14400
C486        C  0.21690607  0.25806907  0.00578648    -0.07700
C487        C  0.14664452  0.25497853  0.01021231     0.05800
C488        C  0.13311606  0.23578158  0.99909929    -0.08900
C489        C  0.10751419  0.23803781  0.99523926     0.00800
C490        C  0.09488108  0.25987846  0.00290694     0.00600
C491        C  0.10881029  0.27946380  0.01323538    -0.12400
C492        C  0.13446814  0.27715224  0.01693128     0.01100
C493        C  0.09494315  0.21771897  0.98298398     0.40400
C494        C  0.14791434  0.29755777  0.02806746     0.37000
C495        C  0.18556136  0.26962210  0.97494440     0.36800
C496        C  0.21163264  0.22975755  0.06932737     0.37500
N497        N  0.08498066  0.20139803  0.97311030    -0.43300
N498        N  0.15873630  0.31390431  0.03694877    -0.43700
N499        N  0.21688823  0.22171029  0.08852814    -0.41100
N500        N  0.18046955  0.27801661  0.95584597    -0.42500
H501        H  0.23103969  0.26569326  0.99357293     0.13600
H502        H  0.16598534  0.23429142  0.05101163     0.10100
H503        H  0.14260071  0.21887858  0.99360511     0.11200
H504        H  0.09956923  0.29636030  0.01910974     0.17000
C505        C  0.02039937  0.29167706  0.11551654    -0.01200
C506        C  0.01381308  0.27117315  0.13045348     0.07400
C507        C  0.00887518  0.24827453  0.11888057    -0.07200
C508        C  0.01014980  0.24561016  0.09290873     0.04800
C509        C  0.01645916  0.26626696  0.07772947    -0.14400
C510        C  0.02179347  0.28908275  0.08960217    -0.07700
C511        C  0.00958373  0.27376733  0.15779900     0.05800
C512        C  0.98522121  0.27169085  0.16680722    -0.08900
C513        C  0.98009933  0.27359008  0.19223371     0.00800
C514        C  0.99949644  0.27758387  0.20935558     0.00600
C515        C  0.02380840  0.28045075  0.20042797    -0.12400
C516        C  0.02902187  0.27833396  0.17488534     0.01100
C517        C  0.95468731  0.27148220  0.20046294     0.40400
C518        C  0.05452692  0.27976793  0.16681347     0.37000
C519        C  0.02456618  0.31591919  0.12628226     0.36800
C520        C  0.00389801  0.22166451  0.08253335     0.37500
N521        N  0.93429142  0.26983850  0.20704435    -0.43300
N522        N  0.07503222  0.28083603  0.16046385    -0.43700
N523        N  0.99878749  0.20242586  0.07434522    -0.41100
N524        N  0.02781217  0.33533189  0.13497981    -0.42500
H525        H  0.02667837  0.30525133  0.07859574     0.13600
H526        H  0.00348716  0.23248020  0.13021765     0.10100
H527        H  0.97012794  0.26850297  0.15388355     0.11200
H528        H  0.03877309  0.28343735  0.21350182     0.17000
C529        C  0.16887171  0.03702160  0.25776952    -0.01200
C530        C  0.15251579  0.01712183  0.26320152     0.07400
C531        C  0.16264962  0.99435993  0.27095126    -0.07200
C532        C  0.18843147  0.99090118  0.27230664     0.04800
C533        C  0.20477668  0.01045834  0.26605167    -0.14400
C534        C  0.19471306  0.03353738  0.25921443    -0.07700
C535        C  0.12497401  0.01899801  0.25961166     0.05800
C536        C  0.11539128  0.02351780  0.23578129    -0.08900
C537        C  0.08963351  0.02381902  0.23129808     0.00800
C538        C  0.07263785  0.01958123  0.25099260     0.00600
C539        C  0.08245446  0.01526860  0.27489006    -0.12400
C540        C  0.10815250  0.01485929  0.27926513     0.01100
C541        C  0.08140744  0.02863409  0.20628696     0.40400
C542        C  0.11683082  0.01040328  0.30421905     0.37000
C543        C  0.15959066  0.06107143  0.25041351     0.36800
C544        C  0.19762017  0.96645685  0.27812429     0.37500
N545        N  0.07490822  0.03247022  0.18618821    -0.43300
N546        N  0.12383076  0.00676546  0.32418527    -0.43700
N547        N  0.20457067  0.94663054  0.28263599    -0.41100
N548        N  0.15217550  0.08037109  0.24452407    -0.42500
H549        H  0.20715647  0.04855605  0.25405608     0.13600
H550        H  0.15034773  0.97884224  0.27490775     0.10100
H551        H  0.12815572  0.02643771  0.22047034     0.11200
H552        H  0.07001945  0.01201767  0.29039202     0.17000
C553        C  0.98407775  0.13729065  0.26017510    -0.01200
C554        C  0.99265606  0.15019668  0.23899896     0.07400
C555        C  0.00421438  0.13696961  0.21989896    -0.07200
C556        C  0.00651742  0.11108930  0.22110776     0.04800
C557        C  0.99719480  0.09788787  0.24198880    -0.14400
C558        C  0.98643244  0.11138883  0.26151986    -0.07700
C559        C  0.99058490  0.17760681  0.23684526     0.05800
C560        C  0.01237215  0.19195891  0.23691540    -0.08900
C561        C  0.01123590  0.21792022  0.23821086     0.00800
C562        C  0.98795564  0.22979566  0.23927727     0.00600
C563        C  0.96619487  0.21554789  0.23752492    -0.12400
C564        C  0.96734279  0.18960350  0.23598279     0.01100
C565        C  0.03411566  0.23172891  0.24083241     0.40400
C566        C  0.94448786  0.17563085  0.23414340     0.37000
C567        C  0.97292942  0.15024464  0.28081992     0.36800
C568        C  0.01880756  0.09882818  0.20067285     0.37500
N569        N  0.05248844  0.24271129  0.24305890    -0.43300
N570        N  0.92619489  0.16438901  0.23266843    -0.43700
N571        N  0.02861129  0.08912731  0.18420638    -0.41100
N572        N  0.96387536  0.16063627  0.29728973    -0.42500
H573        H  0.97928404  0.10166127  0.27766597     0.13600
H574        H  0.01125838  0.14693445  0.20384004     0.10100
H575        H  0.03028030  0.18278778  0.23732422     0.11200
H576        H  0.94827843  0.22465144  0.23849926     0.17000
C577        C  0.99505863  0.84718970  0.23350303    -0.01200
C578        C  0.97647168  0.86564196  0.23368235     0.07400
C579        C  0.95151061  0.85849161  0.23168026    -0.07200
C580        C  0.94479257  0.83334201  0.23177966     0.04800
C581        C  0.96319252  0.81490097  0.23420341    -0.14400
C582        C  0.98829569  0.82194837  0.23389278    -0.07700
C583        C  0.98244646  0.89243028  0.23696719     0.05800
C584        C  0.99385275  0.90538452  0.21755506    -0.08900
C585        C  0.99844049  0.93096466  0.21934473     0.00800
C586        C  0.99140026  0.94424830  0.24103561     0.00600
C587        C  0.98075953  0.93091417  0.26084680    -0.12400
C588        C  0.97622430  0.90526653  0.25894678     0.01100
C589        C  0.01052285  0.94284338  0.19852026     0.40400
C590        C  0.96522677  0.89243345  0.27980334     0.37000
C591        C  0.02103284  0.85376701  0.23458982     0.36800
C592        C  0.91880554  0.82684371  0.23046207     0.37500
N593        N  0.02016594  0.95230294  0.18177876    -0.43300
N594        N  0.95646855  0.88209622  0.29651240    -0.43700
N595        N  0.89797477  0.82166618  0.22925712    -0.41100
N596        N  0.04184061  0.85913244  0.23535017    -0.42500
H597        H  0.00252616  0.80787103  0.23594699     0.13600
H598        H  0.93720287  0.87262908  0.23099233     0.10100
H599        H  0.99885635  0.89548869  0.20074691     0.11200
H600        H  0.97535238  0.94060677  0.27763105     0.17000
C601        C  0.23853661  0.12962058  0.02487930    -0.01200
C602        C  0.25747135  0.14122244  0.01077935     0.07400
C603        C  0.27122084  0.12668730  0.99409591    -0.07200
C604        C  0.26701138  0.10092488  0.99202499     0.04800
C605        C  0.24861282  0.08914108  0.00674564    -0.14400
C606        C  0.23414765  0.10389503  0.02264775    -0.07700
C607        C  0.26381304  0.16818782  0.01414896     0.05800
C608        C  0.27368317  0.17600565  0.03692875    -0.08900
C609        C  0.27752693  0.20131504  0.04204308     0.00800
C610        C  0.27227718  0.21958161  0.02390630     0.00600
C611        C  0.26333387  0.21168098  0.00069809    -0.12400
C612        C  0.25894796  0.18628608  0.99576717     0.01100
C613        C  0.28424651  0.20817854  0.06700239     0.40400
C614        C  0.24765442  0.17939507  0.97249573     0.37000
C615        C  0.22341560  0.14382163  0.04183529     0.36800
C616        C  0.28146151  0.08705662  0.97421849     0.37500
N617        N  0.28921349  0.21339710  0.08722102    -0.43300
N618        N  0.23840638  0.17383139  0.95393166    -0.43700
N619        N  0.29292470  0.07592317  0.95986803    -0.41100
N620        N  0.21137011  0.15531524  0.05540029    -0.42500
H621        H  0.21993495  0.09518353  0.03398776     0.13600
H622        H  0.28560936  0.13541870  0.98299802     0.10100
H623        H  0.27725026  0.16230251  0.05126577     0.11200
H624        H  0.25841725  0.22552995  0.98694654     0.17000
C625        C  0.22662912  0.03282428  0.17820337    -0.01200
C626        C  0.22308954  0.01164771  0.16311496     0.07400
C627        C  0.21973386  0.98833055  0.17441150    -0.07200
C628        C  0.22229421  0.98560768  0.20008988     0.04800
C629        C  0.22874196  0.00631247  0.21471437    -0.14400
C630        C  0.22974057  0.02997555  0.20384496    -0.07700
C631        C  0.22599062  0.01286662  0.13570582     0.05800
C632        C  0.24848752  0.02179033  0.12581830    -0.08900
C633        C  0.25273562  0.02214500  0.10016868     0.00800
C634        C  0.23443872  0.01282740  0.08386442     0.00600
C635        C  0.21188742  0.00400487  0.09386029    -0.12400
C636        C  0.20751188  0.00406975  0.11944564     0.01100
C637        C  0.27546360  0.03325630  0.09118678     0.40400
C638        C  0.18368870  0.99561843  0.12849271     0.37000
C639        C  0.22809163  0.05745883  0.16760862     0.36800
C640        C  0.21993269  0.96114585  0.21092324     0.37500
N641        N  0.29359903  0.04239845  0.08406123    -0.43300
N642        N  0.16456562  0.98890189  0.13570636    -0.43700
N643        N  0.21793999  0.94160349  0.21972283    -0.41100
N644        N  0.22915266  0.07715885  0.15900209    -0.42500
H645        H  0.23470308  0.04594827  0.21507846     0.13600
H646        H  0.21670470  0.97198377  0.16303253     0.10100
H647        H  0.26284074  0.02849851  0.13824365     0.11200
H648        H  0.19751123  0.99699264  0.08163515     0.17000
C649        C  0.23908160  0.84236073  0.97883309    -0.01200
C650        C  0.23953817  0.85371256  0.00249842     0.07400
C651        C  0.24155609  0.83837383  0.02360677    -0.07200
C652        C  0.24302152  0.81233439  0.02134569     0.04800
C653        C  0.24281057  0.80119678  0.99772754    -0.14400
C654        C  0.24074643  0.81639125  0.97667672    -0.07700
C655        C  0.23831650  0.88145990  0.00543687     0.05800
C656        C  0.21749808  0.89458511  0.99675579    -0.08900
C657        C  0.21646645  0.92075160  0.99779511     0.00800
C658        C  0.23661605  0.93451407  0.00775882     0.00600
C659        C  0.25714251  0.92116941  0.01698432    -0.12400
C660        C  0.25808971  0.89507206  0.01598567     0.01100
C661        C  0.19492123  0.93286605  0.98752530     0.40400
C662        C  0.28000836  0.88269042  0.02513002     0.37000
C663        C  0.23693271  0.85694620  0.95644839     0.36800
C664        C  0.24354155  0.79720055  0.04342353     0.37500
N665        N  0.17763949  0.94253715  0.97924405    -0.43300
N666        N  0.29749014  0.87264218  0.03248712    -0.43700
N667        N  0.24375976  0.78496920  0.06109568    -0.41100
N668        N  0.23506845  0.86862721  0.93850845    -0.42500
H669        H  0.23985646  0.80777430  0.95852041     0.13600
H670        H  0.24155823  0.84674757  0.04189869     0.10100
H671        H  0.20210437  0.88432397  0.98876013     0.11200
H672        H  0.27276584  0.93116694  0.02485638     0.17000
C673        C  0.23882570  0.01757035  0.83457819    -0.01200
C674        C  0.23885039  0.99810020  0.85216172     0.07400
C675        C  0.23776981  0.97337752  0.84388937    -0.07200
C676        C  0.23877543  0.96784057  0.81855686     0.04800
C677        C  0.24092276  0.98725573  0.80108623    -0.14400
C678        C  0.23993774  0.01200333  0.80922229    -0.07700
C679        C  0.24095934  0.00297767  0.87919287     0.05800
C680        C  0.22205982  0.01607857  0.89123618    -0.08900
C681        C  0.22291705  0.02016377  0.91684403     0.00800
C682        C  0.24285531  0.01053868  0.93108595     0.00600
C683        C  0.26227222  0.99826124  0.91877529    -0.12400
C684        C  0.26148253  0.99446641  0.89306600     0.01100
C685        C  0.20319718  0.03466228  0.92777992     0.40400
C686        C  0.28201253  0.98191856  0.88126577     0.37000
C687        C  0.23924495  0.04333235  0.84210814     0.36800
C688        C  0.23798002  0.94211929  0.81090851     0.37500
N689        N  0.18741543  0.04632808  0.93649963    -0.43300
N690        N  0.29843349  0.97188912  0.87173323    -0.43700
N691        N  0.23721971  0.92150788  0.80477469    -0.41100
N692        N  0.23945000  0.06398126  0.84815525    -0.42500
H693        H  0.24177977  0.02700423  0.79589739     0.13600
H694        H  0.23692086  0.95836824  0.85731788     0.10100
H695        H  0.20643317  0.02294166  0.88058682     0.11200
H696        H  0.27779362  0.99100243  0.92930005     0.17000
C697        C  0.99902024  0.34605657  0.72762197    -0.01200
C698        C  0.01804223  0.36374823  0.72333282     0.07400
C699        C  0.04128695  0.36006907  0.73457468    -0.07200
C700        C  0.04677896  0.33765311  0.74666834     0.04800
C701        C  0.02867353  0.31875937  0.74825446    -0.14400
C702        C  0.00441926  0.32390397  0.74029058    -0.07700
C703        C  0.01501025  0.38444182  0.70500293     0.05800
C704        C  0.99593958  0.40186938  0.70816762    -0.08900
C705        C  0.99207742  0.42086124  0.69074353     0.00800
C706        C  0.00786083  0.42310714  0.66980404     0.00600
C707        C  0.02670611  0.40549177  0.66644100    -0.12400
C708        C  0.03036158  0.38629296  0.68371120     0.01100
C709        C  0.97100916  0.43703762  0.69424334     0.40400
C710        C  0.04968488  0.36837929  0.67883426     0.37000
C711        C  0.97463999  0.34881186  0.71686327     0.36800
C712        C  0.07189443  0.33321980  0.75482944     0.37500
N713        N  0.95401947  0.44987807  0.69698627    -0.43300
N714        N  0.06518717  0.35402448  0.67499783    -0.43700
N715        N  0.09202052  0.32953796  0.76132686    -0.41100
N716        N  0.95509011  0.35103139  0.70826666    -0.42500
H717        H  0.99051089  0.30929891  0.74101823     0.13600
H718        H  0.05580421  0.37386235  0.73209846     0.10100
H719        H  0.98385190  0.40049074  0.72421856     0.11200
H720        H  0.03890641  0.40696316  0.65047979     0.17000
C721        C  0.04881230  0.27246125  0.82969516    -0.01200
C722        C  0.02572782  0.27101166  0.84210658     0.07400
C723        C  0.00383591  0.27235727  0.82793178    -0.07200
C724        C  0.00471934  0.27428964  0.80188176     0.04800
C725        C  0.02776748  0.27522277  0.78955517    -0.14400
C726        C  0.04962248  0.27446170  0.80371082    -0.07700
C727        C  0.02398285  0.26900995  0.86981639     0.05800
C728        C  0.01442657  0.28912330  0.88327443    -0.08900
C729        C  0.01265905  0.28841809  0.90928209     0.00800
C730        C  0.02045283  0.26704748  0.92266387     0.00600
C731        C  0.02952801  0.24664651  0.90902413    -0.12400
C732        C  0.03141115  0.24750523  0.88293739     0.01100
C733        C  0.00210802  0.30980687  0.92152861     0.40400
C734        C  0.04069492  0.22595534  0.86997812     0.37000
C735        C  0.07192187  0.27222407  0.84321750     0.36800
C736        C  0.98179378  0.27523269  0.78819132     0.37500
N737        N  0.99363116  0.32698953  0.93125796    -0.43300
N738        N  0.04816743  0.20870569  0.85956537    -0.43700
N739        N  0.96320894  0.27613511  0.77748701    -0.41100
N740        N  0.09049581  0.27204371  0.85398747    -0.42500
H741        H  0.06739831  0.27493530  0.79426202     0.13600
H742        H  0.98599578  0.27159183  0.83724818     0.10100
H743        H  0.00842746  0.30560234  0.87336083     0.11200
H744        H  0.03551444  0.23007179  0.91875919     0.17000
C745        C  0.12021140  0.00296192  0.77686918    -0.01200
C746        C  0.13428803  0.01343599  0.75731612     0.07400
C747        C  0.12195912  0.02682324  0.73874523    -0.07200
C748        C  0.09600836  0.02917869  0.73892994     0.04800
C749        C  0.08172022  0.01792096  0.75804786    -0.14400
C750        C  0.09424231  0.00539153  0.77718039    -0.07700
C751        C  0.16157024  0.00906339  0.75504262     0.05800
C752        C  0.16990543  0.98458392  0.75181671    -0.08900
C753        C  0.19526970  0.97922600  0.75063956     0.00800
C754        C  0.21295740  0.99851000  0.75238037     0.00600
C755        C  0.20479412  0.02313609  0.75479407    -0.12400
C756        C  0.17926027  0.02854851  0.75613320     0.01100
C757        C  0.20293162  0.95361908  0.74861606     0.40400
C758        C  0.17168845  0.05400920  0.75975734     0.37000
C759        C  0.13206777  0.98953635  0.79678980     0.36800
C760        C  0.08468420  0.04364248  0.71941250     0.37500
N761        N  0.20916023  0.93309537  0.74711932    -0.43300
N762        N  0.16561149  0.07442454  0.76269749    -0.43700
N763        N  0.07568948  0.05528268  0.70376508    -0.41100
N764        N  0.14166305  0.97875839  0.81268835    -0.42500
H765        H  0.08368748  0.99682693  0.79205303     0.13600
H766        H  0.13262230  0.03500522  0.72372772     0.10100
H767        H  0.15650463  0.96953064  0.75067194     0.11200
H768        H  0.21836909  0.03795556  0.75640097     0.17000
C769        C  0.00961709  0.13619201  0.73833518    -0.01200
C770        C  0.01540116  0.14850824  0.76073772     0.07400
C771        C  0.01816005  0.13457581  0.78248710    -0.07200
C772        C  0.01585551  0.10868113  0.78221443     0.04800
C773        C  0.00994555  0.09617727  0.75975700    -0.14400
C774        C  0.00682097  0.11032144  0.73805758    -0.07700
C775        C  0.01941615  0.17580408  0.76167736     0.05800
C776        C  0.00033884  0.19163338  0.75378158    -0.08900
C777        C  0.00447855  0.21717736  0.75136651     0.00800
C778        C  0.02764898  0.22735947  0.75809804     0.00600
C779        C  0.04627733  0.21183098  0.76733720    -0.12400
C780        C  0.04244761  0.18613089  0.76897080     0.01100
C781        C  0.98557163  0.23215517  0.73971399     0.40400
C782        C  0.06303907  0.17061950  0.77624446     0.37000
C783        C  0.00731246  0.14954759  0.71519379     0.36800
C784        C  0.02076168  0.09568500  0.80515364     0.37500
N785        N  0.97053479  0.24402129  0.73002537    -0.43300
N786        N  0.07954581  0.15815562  0.78198756    -0.43700
N787        N  0.02486403  0.08543194  0.82358229    -0.41100
N788        N  0.00543452  0.16023402  0.69664810    -0.42500
H789        H  0.00240253  0.10116283  0.72068309     0.13600
H790        H  0.02260431  0.14400310  0.79972754     0.10100
H791        H  0.98260793  0.18381298  0.74821681     0.11200
H792        H  0.06435617  0.21961183  0.77173095     0.17000
C793        C  0.99434595  0.90570420  0.78228294    -0.01200
C794        C  0.99243347  0.89091606  0.76085497     0.07400
C795        C  0.99442218  0.90223624  0.73743812    -0.07200
C796        C  0.99813441  0.92795332  0.73509598     0.04800
C797        C  0.99956805  0.94299753  0.75661696    -0.14400
C798        C  0.99784975  0.93136797  0.78003865    -0.07700
C799        C  0.98742340  0.86377042  0.76237327     0.05800
C800        C  0.96523837  0.85547967  0.77343221    -0.08900
C801        C  0.95837955  0.83036201  0.77246684     0.00800
C802        C  0.97391681  0.81319498  0.76044468     0.00600
C803        C  0.99673919  0.82114599  0.75071754    -0.12400
C804        C  0.00358248  0.84624245  0.75152482     0.01100
C805        C  0.93472088  0.82276637  0.78258296     0.40400
C806        C  0.02675910  0.85371912  0.74023101     0.37000
C807        C  0.99304568  0.89493607  0.80681454     0.36800
C808        C  0.00022722  0.93811036  0.71037722     0.37500
N809        N  0.91577088  0.81657614  0.79066056    -0.43300
N810        N  0.04523372  0.85978461  0.73103040    -0.43700
N811        N  0.00196999  0.94611928  0.69051078    -0.41100
N812        N  0.99195896  0.88629152  0.82645674    -0.42500
H813        H  0.99907192  0.94232172  0.79687033     0.13600
H814        H  0.99276425  0.89091553  0.72086971     0.10100
H815        H  0.95268541  0.86884990  0.78175482     0.11200
H816        H  0.00852202  0.80793264  0.74109425     0.17000
C817        C  0.83067372  0.03401582  0.74486374    -0.01200
C818        C  0.84849528  0.01640149  0.73733988     0.07400
C819        C  0.84042785  0.99415121  0.72635844    -0.07200
C820        C  0.81501770  0.98866707  0.72416953     0.04800
C821        C  0.79710992  0.00580597  0.73265274    -0.14400
C822        C  0.80525352  0.02871062  0.74226212    -0.07700
C823        C  0.87552723  0.01994690  0.74217138     0.05800
C824        C  0.88537934  0.01254507  0.76511699    -0.08900
C825        C  0.91107863  0.01352743  0.76971933     0.00800
C826        C  0.92755856  0.02214041  0.75105015     0.00600
C827        C  0.91734583  0.03022876  0.72834022    -0.12400
C828        C  0.89171158  0.02915636  0.72381668     0.01100
C829        C  0.91991175  0.00439042  0.79328435     0.40400
C830        C  0.88243987  0.03727768  0.70004394     0.37000
C831        C  0.83804527  0.05712456  0.75632246     0.36800
C832        C  0.80785891  0.96440379  0.71528580     0.37500
N833        N  0.92688013  0.99697654  0.81219280    -0.43300
N834        N  0.87503934  0.04381272  0.68098107    -0.43700
N835        N  0.80238258  0.94481168  0.70826350    -0.41100
N836        N  0.84391671  0.07563823  0.76558488    -0.42500
H837        H  0.79165163  0.04188291  0.74902759     0.13600
H838        H  0.85405236  0.98050020  0.72059848     0.10100
H839        H  0.87295964  0.00534270  0.77926920     0.11200
H840        H  0.92946160  0.03713891  0.71380260     0.17000
C841        C  0.84519662  0.28317030  0.99932325    -0.01200
C842        C  0.86186464  0.26906296  0.98488337     0.07400
C843        C  0.85267906  0.25529205  0.96470283    -0.07200
C844        C  0.82758562  0.25670528  0.95786539     0.04800
C845        C  0.81119701  0.27160251  0.97171251    -0.14400
C846        C  0.82008725  0.28426856  0.99267998    -0.07700
C847        C  0.88906576  0.26918630  0.98975231     0.05800
C848        C  0.90049420  0.24720920  0.99759287    -0.08900
C849        C  0.92625412  0.24605932  0.00111672     0.00800
C850        C  0.94130180  0.26739046  0.99672213     0.00600
C851        C  0.92959420  0.28953519  0.98926117    -0.12400
C852        C  0.90382966  0.29051248  0.98555135     0.01100
C853        C  0.93644253  0.22260928  0.00922986     0.40400
C854        C  0.89309978  0.31327111  0.97627766     0.37000
C855        C  0.85355501  0.29729295  0.02052449     0.36800
C856        C  0.81944144  0.24409021  0.93569078     0.37500
N857        N  0.94446385  0.20372233  0.01564012    -0.43300
N858        N  0.88448073  0.33147218  0.96877566    -0.43700
N859        N  0.81300524  0.23405202  0.91782444    -0.41100
N860        N  0.86021855  0.30874935  0.03743954    -0.42500
H861        H  0.80759122  0.29607590  0.00314145     0.13600
H862        H  0.86539013  0.24436573  0.95357593     0.10100
H863        H  0.88919451  0.23077387  0.00078659     0.11200
H864        H  0.94065874  0.30599980  0.98551342     0.17000
C865        C  0.82523791  0.99696848  0.24749525    -0.06000
C866        C  0.83733851  0.01996420  0.24345662     0.07400
C867        C  0.82284118  0.04148605  0.24057841    -0.07200
C868        C  0.79673331  0.04025054  0.24158914     0.04800
C869        C  0.78473082  0.01733066  0.24586339    -0.14400
C870        C  0.79922609  0.99588294  0.24891380    -0.07700
C871        C  0.86506325  0.02180506  0.24282057     0.05800
C872        C  0.87745855  0.02595934  0.22023160    -0.08900
C873        C  0.90361997  0.02655024  0.21896855     0.00800
C874        C  0.91800341  0.02297642  0.24073388     0.00600
C875        C  0.90526493  0.01939211  0.26336062    -0.12400
C876        C  0.87926728  0.01878185  0.26453156     0.01100
C877        C  0.91498214  0.03106596  0.19512331     0.40400
C878        C  0.86750621  0.01514493  0.28835648     0.37000
C879        C  0.83912607  0.97409007  0.24908415     0.36800
C880        C  0.78247047  0.06259776  0.23804092     0.37500
N881        N  0.92400873  0.03473572  0.17596507    -0.43300
N882        N  0.85805617  0.01221960  0.30743247    -0.43700
N883        N  0.77097042  0.08051696  0.23520597    -0.41100
N884        N  0.85029991  0.95577020  0.25017824    -0.42500
H885        H  0.79005027  0.97807651  0.25131839     0.13600
H886        H  0.83193203  0.05923196  0.23747426     0.10100
H887        H  0.86663781  0.02843227  0.20345730     0.11200
H888        H  0.91561006  0.01679051  0.28040372     0.17000
C889        C  0.77063536  0.20521831  0.99917293    -0.01200
C890        C  0.76537861  0.18837949  0.97971238     0.07400
C891        C  0.75824794  0.19798209  0.95658989    -0.07200
C892        C  0.75675159  0.22373996  0.95253437     0.04800
C893        C  0.76229931  0.24064148  0.97183688    -0.14400
C894        C  0.76926800  0.23108657  0.99506347    -0.07700
C895        C  0.76710342  0.16072369  0.98292617     0.05800
C896        C  0.74928962  0.14837551  0.99742415    -0.08900
C897        C  0.74917053  0.12231228  0.99953412     0.00800
C898        C  0.76717105  0.10782825  0.98693437     0.00600
C899        C  0.78560971  0.12029931  0.97316258    -0.12400
C900        C  0.78559152  0.14644737  0.97096444     0.01100
C901        C  0.73070715  0.11096026  0.01538564     0.40400
C902        C  0.80479717  0.15832760  0.95644844     0.37000
C903        C  0.77839128  0.19633880  0.02319593     0.36800
C904        C  0.75126017  0.23238409  0.92782857     0.37500
N905        N  0.71599252  0.10183755  0.02816615    -0.43300
N906        N  0.82017918  0.16796291  0.94488190    -0.43700
N907        N  0.74717345  0.23902929  0.90783028    -0.41100
N908        N  0.78461957  0.18914933  0.04244290    -0.42500
H909        H  0.77422059  0.24389957  0.00977879     0.13600
H910        H  0.75424933  0.18526070  0.94149118     0.10100
H911        H  0.73518002  0.15915756  0.00688976     0.11200
H912        H  0.79966821  0.10959327  0.96356187     0.17000
C913        C  0.78015924  0.04473261  0.10497281    -0.01200
C914        C  0.76101066  0.03312060  0.11850200     0.07400
C915        C  0.74084455  0.02262225  0.10575616    -0.07200
C916        C  0.73985671  0.02287994  0.07978715     0.04800
C917        C  0.75933937  0.03399654  0.06607071    -0.14400
C918        C  0.77925848  0.04500077  0.07898408    -0.07700
C919        C  0.76151210  0.03115274  0.14595110     0.05800
C920        C  0.74404280  0.04464154  0.15965465    -0.08900
C921        C  0.74071946  0.04006132  0.18496289     0.00800
C922        C  0.75480133  0.02145099  0.19686489     0.00600
C923        C  0.77357075  0.00923844  0.18365123    -0.12400
C924        C  0.77707788  0.01402792  0.15827913     0.01100
C925        C  0.72195404  0.05389078  0.19820916     0.40400
C926        C  0.79556675  0.00000568  0.14491521     0.37000
C927        C  0.80076486  0.05657633  0.11739543     0.36800
C928        C  0.71940050  0.01029696  0.06781378     0.37500
N929        N  0.70698094  0.06490893  0.20895761    -0.43300
N930        N  0.81044898  0.98886494  0.13416954    -0.43700
N931        N  0.70305114  0.00010674  0.05825353    -0.41100
N932        N  0.81725162  0.06608029  0.12740175    -0.42500
H933        H  0.79424115  0.05378692  0.06873925     0.13600
H934        H  0.72609943  0.01362726  0.11618065     0.10100
H935        H  0.73226134  0.05802759  0.15030492     0.11200
H936        H  0.78435793  0.99485900  0.19271244     0.17000
C937        C  0.79608710  0.01832108  0.87710588    -0.01200
C938        C  0.77527735  0.01687736  0.86142058     0.07400
C939        C  0.75143956  0.01862083  0.87176028    -0.07200
C940        C  0.74797948  0.02210560  0.89725598     0.04800
C941        C  0.76881072  0.02365291  0.91324049    -0.14400
C942        C  0.79274774  0.02166237  0.90270433    -0.07700
C943        C  0.77745684  0.01338736  0.83414522     0.05800
C944        C  0.78696628  0.99095836  0.82474254    -0.08900
C945        C  0.78436191  0.98501752  0.79952507     0.00800
C946        C  0.77202256  0.00160771  0.78356146     0.00600
C947        C  0.76438871  0.02479311  0.79252262    -0.12400
C948        C  0.76719817  0.03087795  0.81756381     0.01100
C949        C  0.79321008  0.96133040  0.79061061     0.40400
C950        C  0.75838947  0.05473433  0.82607911     0.37000
C951        C  0.82100110  0.01704723  0.86728146     0.36800
C952        C  0.72275374  0.02389240  0.90614697     0.37500
N953        N  0.80037613  0.94242385  0.78331640    -0.43300
N954        N  0.75133068  0.07383219  0.83296245    -0.43700
N955        N  0.70247049  0.02536479  0.91308748    -0.41100
N956        N  0.84095902  0.01605442  0.85937608    -0.42500
H957        H  0.80904083  0.02279636  0.91443530     0.13600
H958        H  0.73535649  0.01722676  0.85973367     0.10100
H959        H  0.79505939  0.97750592  0.83731959     0.11200
H960        H  0.75483967  0.03755085  0.78022864     0.17000
C961        C  0.76772730  0.91403200  0.01400101    -0.01200
C962        C  0.74767816  0.90139100  0.00266246     0.07400
C963        C  0.73212623  0.91473614  0.98661476    -0.07200
C964        C  0.73574290  0.94034341  0.98244203     0.04800
C965        C  0.75534171  0.95327837  0.99447125    -0.14400
C966        C  0.77147265  0.93961117  0.00975704    -0.07700
C967        C  0.74206557  0.87464326  0.00837583     0.05800
C968        C  0.73442440  0.86826749  0.03245981    -0.08900
C969        C  0.73062774  0.84336145  0.03930221     0.00800
C970        C  0.73443743  0.82403215  0.02195285     0.00600
C971        C  0.74142628  0.83037889  0.99763834    -0.12400
C972        C  0.74495205  0.85544072  0.99067898     0.01100
C973        C  0.72425085  0.83789868  0.06473876     0.40400
C974        C  0.75255285  0.86096101  0.96559796     0.37000
C975        C  0.78473630  0.90105463  0.03010342     0.36800
C976        C  0.71931332  0.95271125  0.96527502     0.37500
N977        N  0.71918147  0.83347489  0.08514339    -0.43300
N978        N  0.75856780  0.86542132  0.94545870    -0.43700
N979        N  0.70618423  0.96257382  0.95144564    -0.41100
N980        N  0.79833397  0.89057132  0.04298583    -0.42500
H981        H  0.78664635  0.94906699  0.01903489     0.13600
H982        H  0.71682279  0.90519079  0.97764038     0.10100
H983        H  0.73201366  0.88282574  0.04617494     0.11200
H984        H  0.74491979  0.81571663  0.98432447     0.17000
C985        C  0.27529791  0.02889445  0.68613227    -0.01200
C986        C  0.27869578  0.01184986  0.66652835     0.07400
C987        C  0.26751289  0.98830559  0.66804822    -0.07200
C988        C  0.25546289  0.98067251  0.68981005     0.04800
C989        C  0.25475280  0.99661128  0.71054493    -0.14400
C990        C  0.26330099  0.02117942  0.70798014    -0.07700
C991        C  0.29675691  0.01667853  0.64619250     0.05800
C992        C  0.31970976  0.00440932  0.64686069    -0.08900
C993        C  0.33730080  0.00756293  0.62788755     0.00800
C994        C  0.33208061  0.02348425  0.60763890     0.00600
C995        C  0.30914492  0.03612321  0.60739737    -0.12400
C996        C  0.29153164  0.03273445  0.62628931     0.01100
C997        C  0.35977488  0.99310265  0.62923300     0.40400
C998        C  0.26791307  0.04520989  0.62443484     0.37000
C999        C  0.28600486  0.05351907  0.68511430     0.36800
C1000       C  0.24562834  0.95571186  0.69123310     0.37500
N1001       N  0.37768298  0.98133653  0.63057900    -0.43300
N1002       N  0.24894657  0.05514078  0.62287263    -0.43700
N1003       N  0.23761680  0.93574862  0.69234653    -0.41100
N1004       N  0.29456283  0.07326724  0.68418607    -0.42500
H1005       H  0.26303623  0.03347819  0.72393048     0.13600
H1006       H  0.26962901  0.97530167  0.65281192     0.10100
H1007       H  0.32372944  0.99194772  0.66218424     0.11200
H1008       H  0.30472046  0.04854164  0.59218180     0.17000
C1009       C  0.31508599  0.02506866  0.36825026    -0.01200
C1010       C  0.29096232  0.01533476  0.37200353     0.07400
C1011       C  0.28441400  0.00667637  0.39564300    -0.07200
C1012       C  0.30110756  0.00821809  0.41554808     0.04800
C1013       C  0.32490730  0.01912016  0.41214451    -0.14400
C1014       C  0.33166928  0.02711299  0.38825064    -0.07700
C1015       C  0.27347209  0.01145846  0.35090091     0.05800
C1016       C  0.26861217  0.98704005  0.34323675    -0.08900
C1017       C  0.25709670  0.98230317  0.32044896     0.00800
C1018       C  0.24940808  0.00225378  0.30518297     0.00600
C1019       C  0.25154879  0.02662828  0.31428937    -0.12400
C1020       C  0.26378617  0.03138621  0.33684070     0.01100
C1021       C  0.25618733  0.95689058  0.31183219     0.40400
C1022       C  0.26780464  0.05686174  0.34428311     0.37000
C1023       C  0.32362211  0.03195843  0.34378315     0.36800
C1024       C  0.29377334  0.99692674  0.43875105     0.37500
N1025       N  0.25586776  0.93648478  0.30501724    -0.43300
N1026       N  0.27121509  0.07728488  0.35016255    -0.43700
N1027       N  0.28786227  0.98770380  0.45725608    -0.41100
N1028       N  0.33039881  0.03729806  0.32410075    -0.42500
H1029       H  0.34995412  0.03503043  0.38516278     0.13600
H1030       H  0.26632804  0.99817624  0.39841498     0.10100
H1031       H  0.27579869  0.97163265  0.35404670     0.11200
H1032       H  0.24621404  0.04209656  0.30253250     0.17000
C1033       C  0.73977417  0.02625439  0.66331944    -0.01200
C1034       C  0.72923263  0.00748372  0.64826783     0.07400
C1035       C  0.73334789  0.98252009  0.65446475    -0.07200
C1036       C  0.74503453  0.97613829  0.67677573     0.04800
C1037       C  0.75319056  0.99493643  0.69324538    -0.14400
C1038       C  0.75179364  0.01986716  0.68558920    -0.07700
C1039       C  0.71164499  0.01320307  0.62765233     0.05800
C1040       C  0.71783010  0.00649057  0.60332288    -0.08900
C1041       C  0.70101574  0.00994060  0.58373461     0.00800
C1042       C  0.67734337  0.02064747  0.58824240     0.00600
C1043       C  0.67105324  0.02686107  0.61278212    -0.12400
C1044       C  0.68782076  0.02308140  0.63237264     0.01100
C1045       C  0.70819507  0.00082392  0.55959081     0.40400
C1046       C  0.67979328  0.02843437  0.65736986     0.37000
C1047       C  0.73709393  0.05219118  0.65699250     0.36800
C1048       C  0.74620706  0.95017034  0.68355000     0.37500
N1049       N  0.71408572  0.99338508  0.54032075    -0.43300
N1050       N  0.67345106  0.03256632  0.67746631    -0.43700
N1051       N  0.74695168  0.92938305  0.68907655    -0.41100
N1052       N  0.73484852  0.07296888  0.65187516    -0.42500
H1053       H  0.75777392  0.03447368  0.69812609     0.13600
H1054       H  0.72568767  0.96797057  0.64279072     0.10100
H1055       H  0.73575004  0.99806752  0.59970595     0.11200
H1056       H  0.65295116  0.03470734  0.61672637     0.17000
C1057       C  0.70192071  0.04222216  0.37231697    -0.01200
C1058       C  0.69587767  0.02734146  0.35171751     0.07400
C1059       C  0.67273768  0.01518375  0.35127184    -0.07200
C1060       C  0.65589892  0.01726668  0.37114281     0.04800
C1061       C  0.66211329  0.03188980  0.39210808    -0.14400
C1062       C  0.68509143  0.04454946  0.39203103    -0.07700
C1063       C  0.71357139  0.02359826  0.33070563     0.05800
C1064       C  0.72373034  0.99989259  0.32687501    -0.08900
C1065       C  0.73723247  0.99451095  0.30525989     0.00800
C1066       C  0.74071378  0.01296079  0.28696221     0.00600
C1067       C  0.73279476  0.03732773  0.29201724    -0.12400
C1068       C  0.71905867  0.04270551  0.31353487     0.01100
C1069       C  0.74563330  0.96937990  0.30118121     0.40400
C1070       C  0.70870813  0.06728396  0.31634266     0.37000
C1071       C  0.72577991  0.05436590  0.37416536     0.36800
C1072       C  0.63315852  0.00307280  0.36988924     0.37500
N1073       N  0.75245178  0.94925875  0.29789800    -0.43300
N1074       N  0.70034056  0.08695642  0.31858640    -0.43700
N1075       N  0.61500648  0.99156312  0.36864793    -0.41100
N1076       N  0.74495393  0.06400617  0.37567394    -0.42500
H1077       H  0.69025482  0.05606910  0.40769673     0.13600
H1078       H  0.66799687  0.00364997  0.33545553     0.10100
H1079       H  0.71999992  0.98522349  0.34019478     0.11200
H1080       H  0.73478820  0.05150299  0.27781424     0.17000
C1081       C  0.63415036  0.31731074  0.00063001    -0.01200
C1082       C  0.65474064  0.32507460  0.98646844     0.07400
C1083       C  0.65479538  0.34916225  0.97637996    -0.07200
C1084       C  0.63466213  0.36537057  0.97986395     0.04800
C1085       C  0.61371498  0.35756297  0.99377429    -0.14400
C1086       C  0.61399025  0.33346365  0.00418556    -0.07700
C1087       C  0.67606141  0.30824506  0.98094901     0.05800
C1088       C  0.67926676  0.29973939  0.95657437    -0.08900
C1089       C  0.70125156  0.28786490  0.94929400     0.00800
C1090       C  0.72045651  0.28379802  0.96667874     0.00600
C1091       C  0.71621405  0.29020032  0.99162135    -0.12400
C1092       C  0.69444085  0.30272473  0.99876735     0.01100
C1093       C  0.70454915  0.28219548  0.92333883     0.40400
C1094       C  0.69255615  0.31207387  0.02379253     0.37000
C1095       C  0.63296720  0.29254495  0.01093027     0.36800
C1096       C  0.63560557  0.38925346  0.96768608     0.37500
N1097       N  0.70686072  0.27793629  0.90242310    -0.43300
N1098       N  0.69110982  0.31977681  0.04378536    -0.43700
N1099       N  0.63654995  0.40835261  0.95780551    -0.41100
N1100       N  0.63206932  0.27266141  0.01912429    -0.42500
H1101       H  0.59823734  0.32702300  0.01498961     0.13600
H1102       H  0.67055724  0.35518442  0.96532018     0.10100
H1103       H  0.66517467  0.30382671  0.94280109     0.11200
H1104       H  0.73110687  0.28800948  0.00498429     0.17000
C1105       C  0.33666096  0.28904661  0.00124654    -0.01200
C1106       C  0.35568175  0.29350505  0.01869165     0.07400
C1107       C  0.35456186  0.28155509  0.04177968    -0.07200
C1108       C  0.33390419  0.26705488  0.04842436     0.04800
C1109       C  0.31390322  0.26402665  0.03169722    -0.14400
C1110       C  0.31617446  0.27408188  0.00770481    -0.07700
C1111       C  0.37573584  0.31216097  0.01413363     0.05800
C1112       C  0.37447458  0.33539824  0.02596813    -0.08900
C1113       C  0.39330887  0.35329787  0.02285165     0.00800
C1114       C  0.41399780  0.34808080  0.00752093     0.00600
C1115       C  0.41503454  0.32478356  0.99559617    -0.12400
C1116       C  0.39624223  0.30692888  0.99881828     0.01100
C1117       C  0.39157113  0.37612463  0.03681375     0.40400
C1118       C  0.39876128  0.28302741  0.98692523     0.37000
C1119       C  0.33660025  0.30166722  0.97760426     0.36800
C1120       C  0.33266381  0.25739970  0.07338442     0.37500
N1121       N  0.39013297  0.39435269  0.04813330    -0.43300
N1122       N  0.40078810  0.26380654  0.97750129    -0.43700
N1123       N  0.33194183  0.24990341  0.09350224    -0.41100
N1124       N  0.33654270  0.31199725  0.95876142    -0.42500
H1125       H  0.30065516  0.27262453  0.99495713     0.13600
H1126       H  0.36922897  0.28475749  0.05520241     0.10100
H1127       H  0.35883193  0.33941130  0.03801453     0.11200
H1128       H  0.43075782  0.32035144  0.98382213     0.17000
C1129       C  0.62585080  0.71285254  0.02492270    -0.01200
C1130       C  0.62861135  0.73480572  0.01069289     0.07400
C1131       C  0.61310697  0.73842551  0.99014306    -0.07200
C1132       C  0.59467950  0.72097395  0.98400372     0.04800
C1133       C  0.59177549  0.69906115  0.99833204    -0.14400
C1134       C  0.60770665  0.69518509  0.01854873    -0.07700
C1135       C  0.64864953  0.75327492  0.01599876     0.05800
C1136       C  0.66866349  0.75523160  0.99944088    -0.08900
C1137       C  0.68994600  0.76900869  0.00561845     0.00800
C1138       C  0.69151034  0.78105018  0.02887984     0.00600
C1139       C  0.67045288  0.78106453  0.04433939    -0.12400
C1140       C  0.64902042  0.76757065  0.03794171     0.01100
C1141       C  0.71081528  0.76818904  0.98884243     0.40400
C1142       C  0.62790861  0.76803975  0.05445226     0.37000
C1143       C  0.64157985  0.70787273  0.04601173     0.36800
C1144       C  0.57950704  0.72574048  0.96246380     0.37500
N1145       N  0.72734846  0.76734028  0.97515167    -0.43300
N1146       N  0.61088839  0.76855219  0.06756241    -0.43700
N1147       N  0.56740051  0.72968913  0.94518486    -0.41100
N1148       N  0.65404470  0.70383057  0.06301034    -0.42500
H1149       H  0.60557901  0.67857713  0.02980464     0.13600
H1150       H  0.61540192  0.75500852  0.97887598     0.10100
H1151       H  0.66829818  0.74467703  0.98230128     0.11200
H1152       H  0.67142316  0.79015606  0.06226777     0.17000
C1153       C  0.37833930  0.72867931  0.01296699    -0.01200
C1154       C  0.35535332  0.72145569  0.00287808     0.07400
C1155       C  0.35274769  0.69735581  0.99316573    -0.07200
C1156       C  0.37267890  0.68053946  0.99315670     0.04800
C1157       C  0.39593044  0.68777772  0.00300934    -0.14400
C1158       C  0.39831014  0.71194965  0.01294794    -0.07700
C1159       C  0.33330584  0.73814188  0.00310086     0.05800
C1160       C  0.32629582  0.75050239  0.98124899    -0.08900
C1161       C  0.30274227  0.76151911  0.97920343     0.00800
C1162       C  0.28575359  0.75991279  0.99908286     0.00600
C1163       C  0.29395757  0.75012390  0.02180154    -0.12400
C1164       C  0.31749271  0.73921130  0.02391904     0.01100
C1165       C  0.29537695  0.77218550  0.95576460     0.40400
C1166       C  0.32407713  0.72702298  0.04684645     0.37000
C1167       C  0.38188931  0.75326207  0.02313564     0.36800
C1168       C  0.36893948  0.65650636  0.98185444     0.37500
N1169       N  0.28943717  0.78086503  0.93704258    -0.43300
N1170       N  0.32946384  0.71717579  0.06515442    -0.43700
N1171       N  0.36580878  0.63726677  0.97274057    -0.41100
N1172       N  0.38471725  0.77299332  0.03124331    -0.42500
H1173       H  0.41591646  0.71790214  0.02069606     0.13600
H1174       H  0.33500975  0.69169490  0.98546380     0.10100
H1175       H  0.33854572  0.75010626  0.96528236     0.11200
H1176       H  0.28091343  0.74835945  0.03705273     0.17000
loop_ 
_geom_bond_atom_site_label_1 
_geom_bond_atom_site_label_2 
_geom_bond_distance 
_geom_bond_site_symmetry_2 
_ccdc_geom_bond_type 
N1            N2   1.320       .  A
N1            C5   1.340       .  A
N1           Cu9   2.049       .  S
N2            C3   1.354   1_556  A
N2           Cu8   2.118       .  S
C3            C4   1.399       .  A
C3            H6   1.081       .  S
C4            C5   1.380   1_554  A
C4         C1157   1.496       .  S
C5            H7   1.082       .  S
Cu8          N11   2.120       .  S
Cu9          N19   2.049       .  S
Cu10         N12   2.109       .  S
Cu10         N18   2.107       .  S
N11          N12   1.328       .  A
N11          C15   1.352       .  A
N12          C13   1.351       .  A
C13          C14   1.387       .  A
C13          H16   1.083       .  S
C14          C15   1.390       .  A
C14          C38   1.492       .  S
C15          H17   1.083       .  S
N18          N19   1.320       .  A
N18          C22   1.352       .  A
N19          C20   1.342       .  A
C20          C21   1.380       .  A
C20          H23   1.082       .  S
C21          C22   1.395       .  A
C21        C1133   1.489       .  S
C22          H24   1.081       .  S
N25          N26   1.320       .  A
N25          C29   1.342       .  A
N25         Cu33   2.061   1_554  S
N26          C27   1.352       .  A
N26         Cu32   2.104       .  S
C27          C28   1.396       .  A
C27          H30   1.082       .  S
C28          C29   1.383       .  A
C28        C1114   1.495       .  S
C29          H31   1.081       .  S
Cu32         N35   2.106   1_554  S
Cu33         N43   2.061       .  S
Cu34         N36   2.118       .  S
Cu34         N42   2.116       .  S
N35          N36   1.327       .  A
N35          C39   1.350       .  A
N36          C37   1.353       .  A
C37          C38   1.391       .  A
C37          H40   1.083       .  S
C38          C39   1.387       .  A
C39          H41   1.083       .  S
N42          N43   1.321       .  A
N42          C46   1.353       .  A
N43          C44   1.343       .  A
C44          C45   1.384       .  A
C44          H47   1.082       .  S
C45          C46   1.398       .  A
C45        C1085   1.500       .  S
C46          H48   1.081       .  S
N49          N50   1.319       .  A
N49          C53   1.340       .  A
N49         Cu57   2.056       .  S
N50          C51   1.353       .  A
N50         Cu56   2.104       .  S
C51          C52   1.398       .  A
C51          H54   1.081       .  S
C52          C53   1.384       .  A
C52        C1061   1.499       .  S
C53          H55   1.081       .  S
Cu56         N59   2.106       .  S
Cu57         N67   2.056       .  S
Cu58         N60   2.115       .  S
Cu58         N66   2.113       .  S
N59          N60   1.328       .  A
N59          C63   1.349       .  A
N60          C61   1.352       .  A
C61          C62   1.389       .  A
C61          H64   1.082       .  S
C62          C63   1.386       .  A
C62          C86   1.489       .  S
C63          H65   1.082       .  S
N66          N67   1.320       .  A
N66          C70   1.353       .  A
N67          C68   1.341       .  A
C68          C69   1.383       .  A
C68          H71   1.080       .  S
C69          C70   1.397       .  A
C69        C1042   1.497       .  S
C70          H72   1.081       .  S
N73          N74   1.319       .  A
N73          C77   1.340       .  A
N73         Cu81   2.047       .  S
N74          C75   1.353       .  A
N74         Cu80   2.109       .  S
C75          C76   1.397       .  A
C75          H78   1.081       .  S
C76          C77   1.381       .  A
C76        C1013   1.493       .  S
C77          H79   1.081       .  S
Cu80         N83   2.112       .  S
Cu81         N91   2.048       .  S
Cu82         N84   2.109       .  S
Cu82         N90   2.106       .  S
N83          N84   1.328       .  A
N83          C87   1.350       .  A
N84          C85   1.351       .  A
C85          C86   1.387       .  A
C85          H88   1.082       .  S
C86          C87   1.388       .  A
C87          H89   1.083       .  S
N90          N91   1.319       .  A
N90          C94   1.352       .  A
N91          C92   1.339       .  A
C92          C93   1.382       .  A
C92          H95   1.082       .  S
C93          C94   1.398       .  A
C93         C994   1.495       .  S
C94          H96   1.081       .  S
O97        Cu105   2.012       .  S
O97         C107   1.278       .  A
O98        Cu105   2.010   1_565  S
O98         C108   1.277       .  A
O99        Cu105   2.021   1_554  S
O99         C109   1.280       .  A
O100       Cu105   2.021       .  S
O100        C110   1.280       .  A
O101       Cu106   2.000       .  S
O101        C110   1.276       .  A
O102       Cu106   1.998   1_554  S
O102        C109   1.276       .  A
O103       Cu106   2.053   1_565  S
O103        C108   1.284       .  A
O104       Cu106   2.053       .  S
O104        C107   1.283       .  A
Cu105      Cu106   2.365       .  S
C107        C898   1.499       .  S
C108        C965   1.500       .  S
C109        C917   1.485       .  S
C110        C941   1.495       .  S
N111        C115   1.357       .  A
N111        C112   1.362       .  A
N111        C869   1.445       .  S
C112        C113   1.383   1_545  A
C112       C1066   1.481       .  S
C113        C114   1.367   1_565  A
C113        H116   1.083       .  S
C114        C115   1.378       .  A
C114        H117   1.082   1_545  S
C115        C922   1.477       .  S
N118        C122   1.359       .  A
N118        C119   1.364       .  A
N118        C893   1.448       .  S
C119        C120   1.384       .  A
C119       C1090   1.486       .  S
C120        C121   1.369       .  A
C120        H123   1.083       .  S
C121        C122   1.378       .  A
C121        H124   1.082       .  S
C122        C845   1.478       .  S
O125       Cu133   1.981   1_565  S
O125        C135   1.275       .  A
O126       Cu133   1.982       .  S
O126        C136   1.273       .  A
O127       Cu133   2.044   1_655  S
O127        C137   1.283       .  A
O128       Cu133   2.043       .  S
O128        C138   1.283       .  A
O129       Cu134   2.001       .  S
O129        C138   1.276       .  A
O130       Cu134   2.002   1_655  S
O130        C137   1.277       .  A
O131       Cu134   2.020       .  S
O131        C136   1.281       .  A
O132       Cu134   2.028   1_565  S
O132        C135   1.281       .  A
Cu133      Cu134   2.364       .  S
C135        C797   1.491   1_455  S
C136        C773   1.486       .  S
C137        C826   1.499       .  S
C138        C749   1.494       .  S
N139        C143   1.355       .  A
N139        C140   1.359       .  A
N139        C725   1.445       .  S
C140        C141   1.384       .  A
C140        C701   1.476       .  S
C141        C142   1.367       .  A
C141        H144   1.083       .  S
C142        C143   1.377       .  A
C142        H145   1.082       .  S
C143        C778   1.468       .  S
N146        C150   1.356       .  A
N146        C147   1.357       .  A
N146        C754   1.441       .  S
C147        C148   1.383       .  A
C147        C989   1.477       .  S
C148        C149   1.370       .  A
C148        H151   1.082       .  S
C149        C150   1.380       .  A
C149        H152   1.082       .  S
C150        C677   1.477       .  S
O153       Cu161   2.011       .  S
O153        C163   1.277       .  A
O154       Cu161   2.013   1_565  S
O154        C164   1.278       .  A
O155       Cu161   2.031   1_556  S
O155        C165   1.282       .  A
O156       Cu161   2.034       .  S
O156        C166   1.282       .  A
O157       Cu162   1.978       .  S
O157        C166   1.273       .  A
O158       Cu162   1.979   1_556  S
O158        C165   1.273       .  A
O159       Cu162   2.047   1_565  S
O159        C164   1.283       .  A
O160       Cu162   2.048       .  S
O160        C163   1.283       .  A
Cu161      Cu162   2.366       .  S
C163        C605   1.494       .  S
C164        C658   1.503       .  S
C165        C682   1.486       .  S
C166        C634   1.485       .  S
O167       Cu175   2.049       .  S
O167        C177   1.283       .  A
O168       Cu175   2.049   1_455  S
O168        C178   1.283       .  A
O169       Cu175   1.982   1_565  S
O169        C179   1.273       .  A
O170       Cu175   1.978       .  S
O170        C180   1.272       .  A
O171       Cu176   2.035       .  S
O171        C180   1.282       .  A
O172       Cu176   2.039   1_565  S
O172        C179   1.283       .  A
O173       Cu176   2.007   1_455  S
O173        C178   1.277       .  A
O174       Cu176   2.003       .  S
O174        C177   1.277       .  A
Cu175      Cu176   2.362       .  S
C177        C874   1.505       .  S
C178        C538   1.505       .  S
C179        C586   1.492       .  S
C180        C557   1.486       .  S
O181       Cu189   2.050       .  S
O181        C191   1.283       .  A
O182       Cu189   2.049   1_554  S
O182        C192   1.283       .  A
O183       Cu189   1.997   1_655  S
O183        C193   1.275       .  A
O184       Cu189   1.992   1_554  S
O184        C194   1.275       .  A
O185       Cu190   2.032       .  S
O185        C194   1.282       .  A
O186       Cu190   2.034   1_656  S
O186        C193   1.282       .  A
O187       Cu190   2.012       .  S
O187        C192   1.278       .  A
O188       Cu190   2.012   1_556  S
O188        C191   1.277       .  A
Cu189      Cu190   2.362   1_556  S
C191        C730   1.503       .  S
C192        C509   1.507       .  S
C193        C850   1.496       .  S
C194        C490   1.490       .  S
N195        C199   1.357       .  A
N195        C196   1.357       .  A
N195        C514   1.445       .  S
C196        C197   1.383       .  A
C196        C466   1.474   1_655  S
C197        C198   1.369       .  A
C197        H200   1.082       .  S
C198        C199   1.379       .  A
C198        H201   1.082       .  S
C199        C562   1.473       .  S
N202        C206   1.356       .  A
N202        C203   1.363   1_545  A
N202        C533   1.445       .  S
C203        C204   1.384       .  A
C203       C1018   1.480   1_565  S
C204        C205   1.367       .  A
C204        H207   1.083       .  S
C205        C206   1.378   1_565  A
C205        H208   1.082       .  S
C206        C629   1.472       .  S
N209        C213   1.357       .  A
N209        C210   1.365       .  A
N209        C610   1.449       .  S
C210        C211   1.385       .  A
C210       C1109   1.485       .  S
C211        C212   1.367       .  A
C211        H214   1.083       .  S
C212        C213   1.376       .  A
C212        H215   1.082       .  S
C213        C485   1.475       .  S
O216       Cu224   2.034   1_554  S
O216        C226   1.281       .  A
O217       Cu224   2.029   1_455  S
O217        C227   1.281       .  A
O218       Cu224   2.006   1_554  S
O218        C228   1.276       .  A
O219       Cu224   2.008       .  S
O219        C229   1.278       .  A
O220       Cu225   2.045       .  S
O220        C229   1.283       .  A
O221       Cu225   2.050   1_554  S
O221        C228   1.284       .  A
O222       Cu225   1.987   1_455  S
O222        C227   1.274       .  A
O223       Cu225   1.986       .  S
O223        C226   1.274   1_556  A
Cu224      Cu225   2.366       .  S
C226        C418   1.483       .  S
C227        C370   1.484       .  S
C228        C394   1.499       .  S
C229        C437   1.504       .  S
N230        C234   1.358       .  A
N230        C231   1.361       .  A
N230        C389   1.443       .  S
C231        C232   1.383       .  A
C231        C346   1.481       .  S
C232        C233   1.367       .  A
C232        H235   1.082       .  S
C233        C234   1.379       .  A
C233        H236   1.082       .  S
C234        C581   1.478       .  S
N237        C241   1.356       .  A
N237        C238   1.360       .  A
N237        C653   1.442       .  S
C238        C239   1.383       .  A
C238       C1162   1.479       .  S
C239        C240   1.369       .  A
C239        H242   1.082       .  S
C240        C241   1.379       .  A
C240        H243   1.082       .  S
C241        C365   1.474       .  S
N244        C248   1.356       .  A
N244        C245   1.362       .  A
N244        C442   1.449       .  S
C245        C246   1.383       .  A
C245        C317   1.480       .  S
C246        C247   1.368       .  A
C246        H249   1.082       .  S
C247        C248   1.377       .  A
C247        H250   1.082       .  S
C248        C802   1.471       .  S
N251        C255   1.356       .  A
N251        C252   1.362       .  A
N251        C821   1.445   1_565  S
C252        C253   1.385       .  A
C252       C1037   1.485       .  S
C253        C254   1.369       .  A
C253        H256   1.082       .  S
C254        C255   1.377       .  A
C254        H257   1.082       .  S
C255        C946   1.474   1_565  S
N258        C262   1.357       .  A
N258        C259   1.364       .  A
N258        C970   1.448       .  S
C259        C260   1.384       .  A
C259       C1138   1.485       .  S
C260        C261   1.368       .  A
C260        H263   1.082       .  S
C261        C262   1.378       .  A
C261        H264   1.082       .  S
C262        C413   1.478       .  S
N265        N266   1.320       .  A
N265        C269   1.339       .  A
N265       Cu273   2.041   1_455  S
N266        C267   1.354       .  A
N266       Cu272   2.115       .  S
C267        C268   1.396       .  A
C267        H270   1.082       .  S
C268        C269   1.378       .  A
C268        C706   1.489       .  S
C269        H271   1.082       .  S
Cu272       N275   2.118       .  S
Cu273       N283   2.041       .  S
Cu274       N276   2.106   1_655  S
Cu274       N282   2.103       .  S
N275        N276   1.329       .  A
N275        C279   1.353       .  A
N276        C277   1.348       .  A
C277        C278   1.385       .  A
C277        H280   1.083   1_455  S
C278        C279   1.389       .  A
C278        C302   1.489       .  S
C279        H281   1.082       .  S
N282        N283   1.318       .  A
N282        C286   1.353       .  A
N283        C284   1.338       .  A
C284        C285   1.380       .  A
C284        H287   1.083       .  S
C285        C286   1.397       .  A
C285        C322   1.491       .  S
C286        H288   1.082       .  S
N289        N290   1.319       .  A
N289        C293   1.338       .  A
N289       Cu297   2.038       .  S
N290        C291   1.353       .  A
N290       Cu296   2.108       .  S
C291        C292   1.398       .  A
C291        H294   1.081       .  S
C292        C293   1.380       .  A
C292        C461   1.492       .  S
C293        H295   1.080       .  S
Cu296       N299   2.111       .  S
Cu297       N307   2.038   1_455  S
Cu298       N300   2.115   1_655  S
Cu298       N306   2.111       .  S
N299        N300   1.329       .  A
N299        C303   1.352       .  A
N300        C301   1.349       .  A
C301        C302   1.387       .  A
C301        H304   1.082   1_455  S
C302        C303   1.387       .  A
C303        H305   1.082       .  S
N306        N307   1.318       .  A
N306        C310   1.354       .  A
N307        C308   1.338       .  A
C308        C309   1.380       .  A
C308        H311   1.082       .  S
C309        C310   1.399       .  A
C309        C341   1.493       .  S
C310        H312   1.081       .  S
C313        C314   1.411       .  A
C313        C318   1.402       .  A
C313        C327   1.444       .  S
C314        C315   1.405       .  A
C314        C319   1.492       .  S
C315        C316   1.404       .  A
C315        H334   1.085   1_655  S
C316        C317   1.412       .  A
C316        C328   1.444   1_655  S
C317        C318   1.405       .  A
C318        H333   1.085       .  S
C319        C320   1.407       .  A
C319        C324   1.408       .  A
C320        C321   1.405       .  A
C320        H335   1.085       .  S
C321        C322   1.413       .  A
C321        C325   1.443       .  S
C322        C323   1.409   1_655  A
C323        C324   1.402   1_455  A
C323        H336   1.084       .  S
C324        C326   1.444   1_655  S
C325        N329   1.157       .  T
C326        N330   1.157       .  T
C327        N332   1.157       .  T
C328        N331   1.157       .  T
C337        C338   1.409       .  A
C337        C342   1.403       .  A
C337        C351   1.444       .  S
C338        C339   1.407       .  A
C338        C343   1.494       .  S
C339        C340   1.405       .  A
C339        H358   1.085       .  S
C340        C341   1.413       .  A
C340        C352   1.443   1_655  S
C341        C342   1.410       .  A
C342        H357   1.084       .  S
C343        C344   1.403       .  A
C343        C348   1.414       .  A
C344        C345   1.401       .  A
C344        H359   1.085       .  S
C345        C346   1.413       .  A
C345        C349   1.444       .  S
C346        C347   1.403       .  A
C347        C348   1.405       .  A
C347        H360   1.085       .  S
C348        C350   1.443   1_655  S
C349        N353   1.157       .  T
C350        N354   1.157       .  T
C351        N356   1.157       .  T
C352        N355   1.157       .  T
C361        C362   1.412   1_554  A
C361        C366   1.401       .  A
C361        C375   1.444       .  S
C362        C363   1.403       .  A
C362        C367   1.484       .  S
C363        C364   1.399       .  A
C363        H382   1.084       .  S
C364        C365   1.409       .  A
C364        C376   1.444       .  S
C365        C366   1.402   1_556  A
C366        H381   1.084       .  S
C367        C368   1.400       .  A
C367        C372   1.412   1_556  A
C368        C369   1.400       .  A
C368        H383   1.085       .  S
C369        C370   1.418       .  A
C369        C373   1.445       .  S
C370        C371   1.404   1_556  A
C371        C372   1.401       .  A
C371        H384   1.085       .  S
C372        C374   1.444       .  S
C373        N377   1.157       .  T
C374        N378   1.157       .  T
C375        N380   1.157       .  T
C376        N379   1.157       .  T
C385        C386   1.417       .  A
C385        C390   1.409       .  A
C385        C399   1.443   1_655  S
C386        C387   1.406       .  A
C386        C391   1.502       .  S
C387        C388   1.402       .  A
C387        H406   1.085       .  S
C388        C389   1.409       .  A
C388        C400   1.442       .  S
C389        C390   1.402       .  A
C390        H405   1.084   1_655  S
C391        C392   1.404       .  A
C391        C396   1.415       .  A
C392        C393   1.407       .  A
C392        H407   1.084       .  S
C393        C394   1.420       .  A
C393        C397   1.444   1_655  S
C394        C395   1.406       .  A
C395        C396   1.406       .  A
C395        H408   1.084       .  S
C396        C398   1.444       .  S
C397        N401   1.157       .  T
C398        N402   1.157       .  T
C399        N404   1.157       .  T
C400        N403   1.157       .  T
C409        C410   1.409       .  A
C409        C414   1.401       .  A
C409        C423   1.444   1_554  S
C410        C411   1.403       .  A
C410        C415   1.482       .  S
C411        C412   1.401       .  A
C411        H430   1.085       .  S
C412        C413   1.409       .  A
C412        C424   1.443       .  S
C413        C414   1.404       .  A
C414        H429   1.083   1_554  S
C415        C416   1.399   1_554  A
C415        C420   1.411       .  A
C416        C417   1.400       .  A
C416        H431   1.085       .  S
C417        C418   1.417   1_556  A
C417        C421   1.445       .  S
C418        C419   1.404       .  A
C419        C420   1.402       .  A
C419        H432   1.085       .  S
C420        C422   1.444       .  S
C421        N425   1.157       .  T
C422        N426   1.157       .  T
C423        N428   1.157       .  T
C424        N427   1.157       .  T
C433        C434   1.408       .  A
C433        C438   1.403       .  A
C433        C447   1.444       .  S
C434        C435   1.405       .  A
C434        C439   1.495       .  S
C435        C436   1.409       .  A
C435        H454   1.085       .  S
C436        C437   1.419       .  A
C436        C448   1.443       .  S
C437        C438   1.412       .  A
C438        H453   1.084       .  S
C439        C440   1.403       .  A
C439        C444   1.412   1_655  A
C440        C441   1.404       .  A
C440        H455   1.085       .  S
C441        C442   1.414       .  A
C441        C445   1.442       .  S
C442        C443   1.407       .  A
C443        C444   1.408   1_655  A
C443        H456   1.084   1_655  S
C444        C446   1.443       .  S
C445        N449   1.157       .  T
C446        N450   1.157       .  T
C447        N452   1.157       .  T
C448        N451   1.157       .  T
C457        C458   1.411       .  A
C457        C462   1.402       .  A
C457        C471   1.444       .  S
C458        C459   1.397       .  A
C458        C463   1.485       .  S
C459        C460   1.403       .  A
C459        H478   1.085       .  S
C460        C461   1.422       .  A
C460        C472   1.444       .  S
C461        C462   1.405       .  A
C462        H477   1.084       .  S
C463        C464   1.403   1_455  A
C463        C468   1.409       .  A
C464        C465   1.403       .  A
C464        H479   1.084       .  S
C465        C466   1.409   1_655  A
C465        C469   1.443       .  S
C466        C467   1.404       .  A
C467        C468   1.402       .  A
C467        H480   1.085       .  S
C468        C470   1.444       .  S
C469        N473   1.157       .  T
C470        N474   1.157       .  T
C471        N476   1.157   1_455  T
C472        N475   1.157       .  T
C481        C482   1.409   1_556  A
C481        C486   1.401   1_556  A
C481        C495   1.443       .  S
C482        C483   1.403       .  A
C482        C487   1.481       .  S
C483        C484   1.400       .  A
C483        H502   1.085       .  S
C484        C485   1.408       .  A
C484        C496   1.443       .  S
C485        C486   1.403       .  A
C486        H501   1.085   1_554  S
C487        C488   1.397   1_554  A
C487        C492   1.410       .  A
C488        C489   1.400       .  A
C488        H503   1.085       .  S
C489        C490   1.420   1_556  A
C489        C493   1.444       .  S
C490        C491   1.407       .  A
C491        C492   1.402       .  A
C491        H504   1.084       .  S
C492        C494   1.444       .  S
C493        N497   1.157       .  T
C494        N498   1.157       .  T
C495        N500   1.157       .  T
C496        N499   1.157       .  T
C505        C506   1.409       .  A
C505        C510   1.406       .  A
C505        C519   1.444       .  S
C506        C507   1.405       .  A
C506        C511   1.498       .  S
C507        C508   1.409       .  A
C507        H526   1.085       .  S
C508        C509   1.419       .  A
C508        C520   1.443       .  S
C509        C510   1.413       .  A
C510        H525   1.084       .  S
C511        C512   1.403   1_455  A
C511        C516   1.416       .  A
C512        C513   1.401       .  A
C512        H527   1.084       .  S
C513        C514   1.411       .  A
C513        C517   1.443       .  S
C514        C515   1.403   1_655  A
C515        C516   1.409       .  A
C515        H528   1.083       .  S
C516        C518   1.442       .  S
C517        N521   1.157       .  T
C518        N522   1.157       .  T
C519        N524   1.157       .  T
C520        N523   1.157   1_455  T
C529        C530   1.414       .  A
C529        C534   1.407       .  A
C529        C543   1.443       .  S
C530        C531   1.405   1_545  A
C530        C535   1.500       .  S
C531        C532   1.404       .  A
C531        H550   1.085       .  S
C532        C533   1.410   1_565  A
C532        C544   1.440       .  S
C533        C534   1.405       .  A
C534        H549   1.084       .  S
C535        C536   1.406       .  A
C535        C540   1.410       .  A
C536        C537   1.409       .  A
C536        H551   1.085       .  S
C537        C538   1.419       .  A
C537        C541   1.443       .  S
C538        C539   1.412       .  A
C539        C540   1.405       .  A
C539        H552   1.084       .  S
C540        C542   1.444       .  S
C541        N545   1.157       .  T
C542        N546   1.157       .  T
C543        N548   1.157       .  T
C544        N547   1.157       .  T
C553        C554   1.412       .  A
C553        C558   1.401       .  A
C553        C567   1.444       .  S
C554        C555   1.398   1_655  A
C554        C559   1.483       .  S
C555        C556   1.399       .  A
C555        H574   1.085       .  S
C556        C557   1.421   1_455  A
C556        C568   1.445       .  S
C557        C558   1.405       .  A
C558        H573   1.085       .  S
C559        C560   1.403   1_655  A
C559        C564   1.411       .  A
C560        C561   1.399       .  A
C560        H575   1.085       .  S
C561        C562   1.410   1_455  A
C561        C565   1.444       .  S
C562        C563   1.402       .  A
C563        C564   1.399       .  A
C563        H576   1.085       .  S
C564        C566   1.444       .  S
C565        N569   1.157       .  T
C566        N570   1.157       .  T
C567        N572   1.157       .  T
C568        N571   1.157       .  T
C577        C578   1.412       .  A
C577        C582   1.404       .  A
C577        C591   1.443   1_655  S
C578        C579   1.402       .  A
C578        C583   1.486       .  S
C579        C580   1.399       .  A
C579        H598   1.085       .  S
C580        C581   1.410       .  A
C580        C592   1.443       .  S
C581        C582   1.403       .  A
C582        H597   1.085   1_655  S
C583        C584   1.397       .  A
C583        C588   1.412       .  A
C584        C585   1.400       .  A
C584        H599   1.085       .  S
C585        C586   1.422       .  A
C585        C589   1.444   1_655  S
C586        C587   1.406       .  A
C587        C588   1.403       .  A
C587        H600   1.084       .  S
C588        C590   1.444       .  S
C589        N593   1.157       .  T
C590        N594   1.157       .  T
C591        N596   1.157       .  T
C592        N595   1.157       .  T
C601        C602   1.414       .  A
C601        C606   1.408       .  A
C601        C615   1.444       .  S
C602        C603   1.404   1_554  A
C602        C607   1.500       .  S
C603        C604   1.407       .  A
C603        H622   1.084       .  S
C604        C605   1.417   1_556  A
C604        C616   1.444       .  S
C605        C606   1.405       .  A
C606        H621   1.084       .  S
C607        C608   1.403       .  A
C607        C612   1.413   1_554  A
C608        C609   1.403       .  A
C608        H623   1.085       .  S
C609        C610   1.415       .  A
C609        C613   1.441       .  S
C610        C611   1.406       .  A
C611        C612   1.410   1_554  A
C611        H624   1.084   1_554  S
C612        C614   1.443       .  S
C613        N617   1.157       .  T
C614        N618   1.157       .  T
C615        N620   1.157       .  T
C616        N619   1.157       .  T
C625        C626   1.412       .  A
C625        C630   1.401       .  A
C625        C639   1.444       .  S
C626        C627   1.404   1_545  A
C626        C631   1.487       .  S
C627        C628   1.399       .  A
C627        H646   1.084       .  S
C628        C629   1.407   1_565  A
C628        C640   1.444       .  S
C629        C630   1.401       .  A
C630        H645   1.084       .  S
C631        C632   1.406       .  A
C631        C636   1.408       .  A
C632        C633   1.401       .  A
C632        H647   1.084       .  S
C633        C634   1.412       .  A
C633        C637   1.444       .  S
C634        C635   1.409       .  A
C635        C636   1.399       .  A
C635        H648   1.084   1_545  S
C636        C638   1.444   1_545  S
C637        N641   1.157       .  T
C638        N642   1.157       .  T
C639        N644   1.157       .  T
C640        N643   1.157       .  T
C649        C650   1.414   1_556  A
C649        C654   1.404       .  A
C649        C663   1.443       .  S
C650        C651   1.409       .  A
C650        C655   1.502       .  S
C651        C652   1.408       .  A
C651        H670   1.084       .  S
C652        C653   1.407   1_554  A
C652        C664   1.441       .  S
C653        C654   1.402       .  A
C654        H669   1.084       .  S
C655        C656   1.407   1_554  A
C655        C660   1.411       .  A
C656        C657   1.409       .  A
C656        H671   1.084       .  S
C657        C658   1.418   1_556  A
C657        C661   1.443       .  S
C658        C659   1.411       .  A
C659        C660   1.405       .  A
C659        H672   1.084       .  S
C660        C662   1.444       .  S
C661        N665   1.157       .  T
C662        N666   1.157       .  T
C663        N668   1.157       .  T
C664        N667   1.157       .  T
C673        C674   1.412   1_545  A
C673        C678   1.400       .  A
C673        C687   1.444       .  S
C674        C675   1.403       .  A
C674        C679   1.485   1_565  S
C675        C676   1.399       .  A
C675        H694   1.084       .  S
C676        C677   1.410       .  A
C676        C688   1.444       .  S
C677        C678   1.402   1_565  A
C678        H693   1.084       .  S
C679        C680   1.399       .  A
C679        C684   1.412   1_545  A
C680        C681   1.398       .  A
C680        H695   1.085       .  S
C681        C682   1.419       .  A
C681        C685   1.445       .  S
C682        C683   1.405   1_545  A
C683        C684   1.401       .  A
C683        H696   1.084       .  S
C684        C686   1.444       .  S
C685        N689   1.157       .  T
C686        N690   1.157       .  T
C687        N692   1.157       .  T
C688        N691   1.157       .  T
C697        C698   1.415   1_655  A
C697        C702   1.404   1_655  A
C697        C711   1.444       .  S
C698        C699   1.406       .  A
C698        C703   1.497       .  S
C699        C700   1.402       .  A
C699        H718   1.084       .  S
C700        C701   1.409       .  A
C700        C712   1.443       .  S
C701        C702   1.404       .  A
C702        H717   1.084   1_455  S
C703        C704   1.403   1_455  A
C703        C708   1.417       .  A
C704        C705   1.403       .  A
C704        H719   1.085       .  S
C705        C706   1.417   1_655  A
C705        C709   1.444       .  S
C706        C707   1.402       .  A
C707        C708   1.404       .  A
C707        H720   1.085       .  S
C708        C710   1.444       .  S
C709        N713   1.157       .  T
C710        N714   1.157       .  T
C711        N716   1.157       .  T
C712        N715   1.157       .  T
C721        C722   1.413       .  A
C721        C726   1.405       .  A
C721        C735   1.443       .  S
C722        C723   1.408       .  A
C722        C727   1.500       .  S
C723        C724   1.409       .  A
C723        H742   1.084   1_455  S
C724        C725   1.408       .  A
C724        C736   1.440   1_455  S
C725        C726   1.404       .  A
C726        H741   1.084       .  S
C727        C728   1.401       .  A
C727        C732   1.414       .  A
C728        C729   1.405       .  A
C728        H743   1.085       .  S
C729        C730   1.421       .  A
C729        C733   1.444       .  S
C730        C731   1.409       .  A
C731        C732   1.410       .  A
C731        H744   1.084       .  S
C732        C734   1.444       .  S
C733        N737   1.157   1_455  T
C734        N738   1.157       .  T
C735        N740   1.157       .  T
C736        N739   1.157       .  T
C745        C746   1.413       .  A
C745        C750   1.405       .  A
C745        C759   1.444   1_545  S
C746        C747   1.401       .  A
C746        C751   1.494       .  S
C747        C748   1.404       .  A
C747        H766   1.084       .  S
C748        C749   1.420       .  A
C748        C760   1.444       .  S
C749        C750   1.405       .  A
C750        H765   1.084   1_545  S
C751        C752   1.403   1_545  A
C751        C756   1.415       .  A
C752        C753   1.398       .  A
C752        H767   1.085       .  S
C753        C754   1.409       .  A
C753        C757   1.443       .  S
C754        C755   1.402   1_565  A
C755        C756   1.408       .  A
C755        H768   1.083       .  S
C756        C758   1.443       .  S
C757        N761   1.157       .  T
C758        N762   1.157       .  T
C759        N764   1.157       .  T
C760        N763   1.157       .  T
C769        C770   1.412       .  A
C769        C774   1.399       .  A
C769        C783   1.444       .  S
C770        C771   1.399       .  A
C770        C775   1.484       .  S
C771        C772   1.397       .  A
C771        H790   1.085       .  S
C772        C773   1.421       .  A
C772        C784   1.445       .  S
C773        C774   1.405       .  A
C774        H789   1.085       .  S
C775        C776   1.402       .  A
C775        C780   1.414       .  A
C776        C777   1.397       .  A
C776        H791   1.085   1_455  S
C777        C778   1.409       .  A
C777        C781   1.444   1_455  S
C778        C779   1.399       .  A
C779        C780   1.399       .  A
C779        H792   1.085       .  S
C780        C782   1.444       .  S
C781        N785   1.157       .  T
C782        N786   1.157       .  T
C783        N788   1.157       .  T
C784        N787   1.157       .  T
C793        C794   1.406       .  A
C793        C798   1.397       .  A
C793        C807   1.445       .  S
C794        C795   1.405       .  A
C794        C799   1.486       .  S
C795        C796   1.402       .  A
C795        H814   1.085       .  S
C796        C797   1.416       .  A
C796        C808   1.444   1_655  S
C797        C798   1.411       .  A
C798        H813   1.084       .  S
C799        C800   1.406       .  A
C799        C804   1.411   1_655  A
C800        C801   1.400       .  A
C800        H815   1.085       .  S
C801        C802   1.406       .  A
C801        C805   1.443       .  S
C802        C803   1.401       .  A
C803        C804   1.398   1_655  A
C803        H816   1.086   1_655  S
C804        C806   1.444       .  S
C805        N809   1.157       .  T
C806        N810   1.157       .  T
C807        N812   1.157       .  T
C808        N811   1.157       .  T
C817        C818   1.410       .  A
C817        C822   1.405       .  A
C817        C831   1.443       .  S
C818        C819   1.403   1_545  A
C818        C823   1.491       .  S
C819        C820   1.404       .  A
C819        H838   1.085       .  S
C820        C821   1.412   1_565  A
C820        C832   1.441       .  S
C821        C822   1.405       .  A
C822        H837   1.084       .  S
C823        C824   1.404       .  A
C823        C828   1.407       .  A
C824        C825   1.407       .  A
C824        H839   1.085       .  S
C825        C826   1.418       .  A
C825        C829   1.443       .  S
C826        C827   1.411       .  A
C827        C828   1.403       .  A
C827        H840   1.084       .  S
C828        C830   1.443       .  S
C829        N833   1.157   1_545  T
C830        N834   1.157       .  T
C831        N836   1.157       .  T
C832        N835   1.157       .  T
C841        C842   1.411       .  A
C841        C846   1.401       .  A
C841        C855   1.444   1_556  S
C842        C843   1.406       .  A
C842        C847   1.489       .  S
C843        C844   1.404       .  A
C843        H862   1.084       .  S
C844        C845   1.408       .  A
C844        C856   1.443       .  S
C845        C846   1.404       .  A
C846        H861   1.084   1_556  S
C847        C848   1.399       .  A
C847        C852   1.411       .  A
C848        C849   1.402   1_556  A
C848        H863   1.085   1_556  S
C849        C850   1.422   1_554  A
C849        C853   1.444       .  S
C850        C851   1.408       .  A
C851        C852   1.403       .  A
C851        H864   1.084       .  S
C852        C854   1.444       .  S
C853        N857   1.157       .  T
C854        N858   1.157       .  T
C855        N860   1.157       .  T
C856        N859   1.157       .  T
C865        C866   1.413   1_565  A
C865        C870   1.404       .  A
C865        C879   1.444       .  S
C866        C867   1.406       .  A
C866        C871   1.497       .  S
C867        C868   1.409       .  A
C867        H886   1.084       .  S
C868        C869   1.409       .  A
C868        C880   1.441       .  S
C869        C870   1.404   1_545  A
C870        H885   1.084       .  S
C871        C872   1.405       .  A
C871        C876   1.408       .  A
C872        C873   1.411       .  A
C872        H887   1.084       .  S
C873        C874   1.420       .  A
C873        C877   1.443       .  S
C874        C875   1.411       .  A
C875        C876   1.402       .  A
C875        H888   1.084       .  S
C876        C878   1.444       .  S
C877        N881   1.157       .  T
C878        N882   1.157       .  T
C879        N884   1.157       .  T
C880        N883   1.157       .  T
C889        C890   1.414       .  A
C889        C894   1.410       .  A
C889        C903   1.442   1_556  S
C890        C891   1.403       .  A
C890        C895   1.500       .  S
C891        C892   1.404       .  A
C891        H910   1.085       .  S
C892        C893   1.413       .  A
C892        C904   1.441       .  S
C893        C894   1.405       .  A
C894        H909   1.084   1_556  S
C895        C896   1.402       .  A
C895        C900   1.414       .  A
C896        C897   1.406       .  A
C896        H911   1.084   1_556  S
C897        C898   1.418       .  A
C897        C901   1.444   1_556  S
C898        C899   1.407       .  A
C899        C900   1.411       .  A
C899        H912   1.084       .  S
C900        C902   1.444       .  S
C901        N905   1.157       .  T
C902        N906   1.157       .  T
C903        N908   1.157       .  T
C904        N907   1.157       .  T
C913        C914   1.407       .  A
C913        C918   1.402       .  A
C913        C927   1.443       .  S
C914        C915   1.403       .  A
C914        C919   1.483       .  S
C915        C916   1.401       .  A
C915        H934   1.085       .  S
C916        C917   1.414       .  A
C916        C928   1.444       .  S
C917        C918   1.408       .  A
C918        H933   1.084       .  S
C919        C920   1.400       .  A
C919        C924   1.413       .  A
C920        C921   1.397       .  A
C920        H935   1.085       .  S
C921        C922   1.412       .  A
C921        C925   1.445       .  S
C922        C923   1.401       .  A
C923        C924   1.404       .  A
C923        H936   1.085   1_545  S
C924        C926   1.443       .  S
C925        N929   1.157       .  T
C926        N930   1.157   1_545  T
C927        N932   1.157       .  T
C928        N931   1.157       .  T
C937        C938   1.407       .  A
C937        C942   1.403       .  A
C937        C951   1.444       .  S
C938        C939   1.403       .  A
C938        C943   1.487       .  S
C939        C940   1.399       .  A
C939        H958   1.085       .  S
C940        C941   1.418       .  A
C940        C952   1.444       .  S
C941        C942   1.413       .  A
C942        H957   1.084       .  S
C943        C944   1.406   1_545  A
C943        C948   1.411       .  A
C944        C945   1.403       .  A
C944        H959   1.084       .  S
C945        C946   1.408   1_565  A
C945        C949   1.444       .  S
C946        C947   1.400       .  A
C947        C948   1.397       .  A
C947        H960   1.085       .  S
C948        C950   1.444       .  S
C949        N953   1.157       .  T
C950        N954   1.157       .  T
C951        N956   1.157       .  T
C952        N955   1.157       .  T
C961        C962   1.414       .  A
C961        C966   1.408       .  A
C961        C975   1.444       .  S
C962        C963   1.403   1_554  A
C962        C967   1.500       .  S
C963        C964   1.408       .  A
C963        H982   1.084       .  S
C964        C965   1.420       .  A
C964        C976   1.444       .  S
C965        C966   1.406   1_556  A
C966        H981   1.084       .  S
C967        C968   1.403       .  A
C967        C972   1.415   1_554  A
C968        C969   1.403       .  A
C968        H983   1.085       .  S
C969        C970   1.414       .  A
C969        C973   1.443       .  S
C970        C971   1.405   1_554  A
C971        C972   1.411       .  A
C971        H984   1.083       .  S
C972        C974   1.442       .  S
C973        N977   1.157       .  T
C974        N978   1.157       .  T
C975        N980   1.157       .  T
C976        N979   1.157       .  T
C985        C986   1.411       .  A
C985        C990   1.404       .  A
C985        C999   1.443       .  S
C986        C987   1.403   1_545  A
C986        C991   1.487       .  S
C987        C988   1.401       .  A
C987       H1006   1.085       .  S
C988        C989   1.409       .  A
C988       C1000   1.443       .  S
C989        C990   1.404   1_565  A
C990       H1005   1.085       .  S
C991        C992   1.404       .  A
C991        C996   1.406       .  A
C992        C993   1.403       .  A
C992       H1007   1.086   1_545  S
C993        C994   1.416       .  A
C993        C997   1.442   1_545  S
C994        C995   1.412       .  A
C995        C996   1.402       .  A
C995       H1008   1.084       .  S
C996        C998   1.443       .  S
C997       N1001   1.157       .  T
C998       N1002   1.157       .  T
C999       N1004   1.157       .  T
C1000      N1003   1.157       .  T
C1009      C1010   1.414       .  A
C1009      C1014   1.405       .  A
C1009      C1023   1.444       .  S
C1010      C1011   1.401       .  A
C1010      C1015   1.492       .  S
C1011      C1012   1.403       .  A
C1011      H1030   1.085   1_545  S
C1012      C1013   1.420       .  A
C1012      C1024   1.444   1_545  S
C1013      C1014   1.405       .  A
C1014      H1029   1.084       .  S
C1015      C1016   1.401   1_545  A
C1015      C1020   1.413       .  A
C1016      C1017   1.400       .  A
C1016      H1031   1.085       .  S
C1017      C1018   1.415   1_565  A
C1017      C1021   1.444       .  S
C1018      C1019   1.404       .  A
C1019      C1020   1.406       .  A
C1019      H1032   1.085       .  S
C1020      C1022   1.443       .  S
C1021      N1025   1.157       .  T
C1022      N1026   1.157       .  T
C1023      N1028   1.157       .  T
C1024      N1027   1.157       .  T
C1033      C1034   1.413       .  A
C1033      C1038   1.407       .  A
C1033      C1047   1.443       .  S
C1034      C1035   1.401   1_545  A
C1034      C1039   1.493       .  S
C1035      C1036   1.401       .  A
C1035      H1054   1.085       .  S
C1036      C1037   1.415       .  A
C1036      C1048   1.444       .  S
C1037      C1038   1.404   1_565  A
C1038      H1053   1.085       .  S
C1039      C1040   1.400       .  A
C1039      C1044   1.413       .  A
C1040      C1041   1.404       .  A
C1040      H1055   1.085   1_545  S
C1041      C1042   1.421       .  A
C1041      C1045   1.444       .  S
C1042      C1043   1.406       .  A
C1043      C1044   1.405       .  A
C1043      H1056   1.084       .  S
C1044      C1046   1.444       .  S
C1045      N1049   1.158   1_545  T
C1046      N1050   1.157       .  T
C1047      N1052   1.157       .  T
C1048      N1051   1.157       .  T
C1057      C1058   1.407       .  A
C1057      C1062   1.402       .  A
C1057      C1071   1.443       .  S
C1058      C1059   1.406       .  A
C1058      C1063   1.493       .  S
C1059      C1060   1.407       .  A
C1059      H1078   1.085       .  S
C1060      C1061   1.417       .  A
C1060      C1072   1.443       .  S
C1061      C1062   1.411       .  A
C1062      H1077   1.083       .  S
C1063      C1064   1.404   1_545  A
C1063      C1068   1.413       .  A
C1064      C1065   1.403       .  A
C1064      H1079   1.084       .  S
C1065      C1066   1.410   1_565  A
C1065      C1069   1.443       .  S
C1066      C1067   1.406       .  A
C1067      C1068   1.406       .  A
C1067      H1080   1.085       .  S
C1068      C1070   1.444       .  S
C1069      N1073   1.157       .  T
C1070      N1074   1.157       .  T
C1071      N1076   1.157       .  T
C1072      N1075   1.158   1_545  T
C1081      C1082   1.408   1_554  A
C1081      C1086   1.406       .  A
C1081      C1095   1.444       .  S
C1082      C1083   1.404       .  A
C1082      C1087   1.494       .  S
C1083      C1084   1.406       .  A
C1083      H1102   1.085       .  S
C1084      C1085   1.416       .  A
C1084      C1096   1.442       .  S
C1085      C1086   1.412   1_556  A
C1086      H1101   1.084       .  S
C1087      C1088   1.402       .  A
C1087      C1092   1.412       .  A
C1088      C1089   1.403       .  A
C1088      H1103   1.085       .  S
C1089      C1090   1.414       .  A
C1089      C1093   1.443       .  S
C1090      C1091   1.406       .  A
C1091      C1092   1.408       .  A
C1091      H1104   1.085   1_556  S
C1092      C1094   1.443   1_556  S
C1093      N1097   1.157       .  T
C1094      N1098   1.157       .  T
C1095      N1100   1.157       .  T
C1096      N1099   1.157       .  T
C1105      C1106   1.411       .  A
C1105      C1110   1.407       .  A
C1105      C1119   1.443   1_554  S
C1106      C1107   1.401       .  A
C1106      C1111   1.492       .  S
C1107      C1108   1.403       .  A
C1107      H1126   1.085       .  S
C1108      C1109   1.415       .  A
C1108      C1120   1.443       .  S
C1109      C1110   1.406       .  A
C1110      H1125   1.085   1_554  S
C1111      C1112   1.405       .  A
C1111      C1116   1.407   1_554  A
C1112      C1113   1.406       .  A
C1112      H1127   1.085       .  S
C1113      C1114   1.415       .  A
C1113      C1117   1.443       .  S
C1114      C1115   1.409   1_554  A
C1115      C1116   1.404       .  A
C1115      H1128   1.085       .  S
C1116      C1118   1.443       .  S
C1117      N1121   1.157       .  T
C1118      N1122   1.157       .  T
C1119      N1124   1.157       .  T
C1120      N1123   1.157       .  T
C1129      C1130   1.415       .  A
C1129      C1134   1.404       .  A
C1129      C1143   1.444       .  S
C1130      C1131   1.402   1_554  A
C1130      C1135   1.492       .  S
C1131      C1132   1.404       .  A
C1131      H1150   1.085       .  S
C1132      C1133   1.416       .  A
C1132      C1144   1.444       .  S
C1133      C1134   1.403   1_556  A
C1134      H1149   1.085       .  S
C1135      C1136   1.402   1_554  A
C1135      C1140   1.411       .  A
C1136      C1137   1.403   1_556  A
C1136      H1151   1.085       .  S
C1137      C1138   1.414       .  A
C1137      C1141   1.443   1_554  S
C1138      C1139   1.407       .  A
C1139      C1140   1.405       .  A
C1139      H1152   1.084       .  S
C1140      C1142   1.443       .  S
C1141      N1145   1.157       .  T
C1142      N1146   1.157       .  T
C1143      N1148   1.157       .  T
C1144      N1147   1.157       .  T
C1153      C1154   1.406       .  A
C1153      C1158   1.404       .  A
C1153      C1167   1.443       .  S
C1154      C1155   1.404   1_554  A
C1154      C1159   1.490       .  S
C1155      C1156   1.406       .  A
C1155      H1174   1.085       .  S
C1156      C1157   1.414   1_556  A
C1156      C1168   1.443       .  S
C1157      C1158   1.411       .  A
C1158      H1173   1.084       .  S
C1159      C1160   1.405   1_554  A
C1159      C1164   1.409       .  A
C1160      C1161   1.406       .  A
C1160      H1175   1.084       .  S
C1161      C1162   1.411       .  A
C1161      C1165   1.443       .  S
C1162      C1163   1.405   1_556  A
C1163      C1164   1.403       .  A
C1163      H1176   1.085       .  S
C1164      C1166   1.443       .  S
C1165      N1169   1.157       .  T
C1166      N1170   1.157       .  T
C1167      N1172   1.157       .  T
C1168      N1171   1.157       .  T
