geometry optimzed in LAMMPS
_audit_creation_date              2020-11-30 
_audit_creation_method            'lammps2cif' 
_symmetry_space_group_name_H-M    'P1' 
_symmetry_Int_Tables_number       1 
_symmetry_cell_setting            triclinic 
loop_ 
_symmetry_equiv_pos_as_xyz 
  x,y,z 
_cell_length_a                    48.92200028 
_cell_length_b                    39.066121940043566 
_cell_length_c                    27.490040647808275 
_cell_angle_alpha                 90.02977453664997 
_cell_angle_beta                  90.74078469200863 
_cell_angle_gamma                 89.96447298538544 
loop_ 
_atom_site_label 
_atom_site_type_symbol 
_atom_site_fract_x 
_atom_site_fract_y 
_atom_site_fract_z 
_atom_site_charge 
C1          C  0.70769720  0.27038311  0.43831285     0.33000
C2          C  0.70903398  0.27168928  0.03695227     0.33000
C3          C  0.72327533  0.30034366  0.46190868    -0.03200
C4          C  0.67951256  0.27254617  0.46248286    -0.04000
C5          C  0.72062274  0.23906328  0.46327239    -0.03800
C6          C  0.72201207  0.30239030  0.01162887    -0.03200
C7          C  0.68036894  0.27068273  0.01393240    -0.04000
C8          C  0.72317807  0.24112287  0.01313733    -0.03900
C9          C  0.73394852  0.33275179  0.02572031    -0.29200
N10         N  0.74026015  0.35054770  0.98507423     0.17300
C11         C  0.73572052  0.32997880  0.44657814    -0.29200
H12         H  0.73807704  0.33840283  0.40937493     0.19200
C13         C  0.65402287  0.27162590  0.03032066    -0.28200
N14         N  0.63671032  0.27080214  0.99138747     0.16000
C15         C  0.65229383  0.27418575  0.44849759    -0.28200
C16         C  0.73660987  0.21209898  0.02870194    -0.28500
N17         N  0.74390260  0.19386264  0.98896931     0.16500
H18         H  0.74052280  0.20456564  0.06602978     0.19100
C19         C  0.73150285  0.20806376  0.44949588    -0.28500
H20         H  0.73396127  0.19878368  0.41270342     0.19100
H21         H  0.64428775  0.27417778  0.41153651     0.19100
H22         H  0.73739746  0.34152139  0.06265653     0.19200
H23         H  0.64780061  0.27302286  0.06790111     0.19100
C24         C  0.71102729  0.27195978  0.18810931     0.33000
C25         C  0.71027556  0.27103857  0.28720298     0.33000
C26         C  0.72403018  0.30290987  0.21337385    -0.03200
C27         C  0.68275839  0.27049358  0.21102454    -0.04000
C28         C  0.72584647  0.24183700  0.21234886    -0.03800
C29         C  0.72361912  0.30258610  0.26419046    -0.03200
C30         C  0.68235954  0.26979411  0.26163084    -0.04000
C31         C  0.72550318  0.24134114  0.26316086    -0.03900
C32         C  0.73493936  0.33295856  0.27984951    -0.29200
N33         N  0.74210043  0.35118103  0.23999524     0.17300
C34         C  0.73560732  0.33326415  0.19927077    -0.29200
H35         H  0.73857927  0.34202224  0.16235654     0.19200
C36         C  0.65547994  0.26809172  0.27521836    -0.28200
N37         N  0.63972352  0.26797104  0.23413213     0.16000
C38         C  0.65613376  0.26973190  0.19483225    -0.28200
C39         C  0.73742092  0.21113706  0.27788271    -0.28500
N40         N  0.74486193  0.19372041  0.23747861     0.16500
H41         H  0.73953702  0.20186896  0.31485159     0.19100
C42         C  0.73792362  0.21198026  0.19730351    -0.28500
H43         H  0.74048953  0.20350181  0.16015200     0.19100
H44         H  0.64913083  0.27023730  0.15737177     0.19100
H45         H  0.73730805  0.34149954  0.31712300     0.19200
H46         H  0.64796599  0.26764131  0.31208998     0.19100
C47         C  0.81379017  0.02210093  0.04231480     0.33000
C48         C  0.80822619  0.02136819  0.44344765     0.33000
C49         C  0.80084995  0.05409301  0.01860205    -0.03200
C50         C  0.84183237  0.02003830  0.01773694    -0.04000
C51         C  0.79664181  0.49005108  0.01448459    -0.03800
C52         C  0.79265550  0.05039372  0.46813427    -0.03200
C53         C  0.83670014  0.02396573  0.46722252    -0.04000
C54         C  0.79722987  0.48896206  0.46360910    -0.03900
C55         C  0.77924815  0.07955429  0.45339782    -0.29200
N56         N  0.77183715  0.09699579  0.49372620     0.17300
C57         C  0.78940604  0.08467648  0.03336084    -0.29200
H58         H  0.78654649  0.09311650  0.07043805     0.19200
C59         C  0.86493159  0.52318416  0.44804649    -0.28200
N60         N  0.88177585  0.52253210  0.48753626     0.16000
C61         C  0.86717368  0.51673016  0.03008887    -0.28200
C62         C  0.78491402  0.45924352  0.44800953    -0.28500
N63         N  0.77810093  0.44088942  0.48786390     0.16500
H64         H  0.78142841  0.45134131  0.41070425     0.19100
C65         C  0.78363831  0.46033700  0.02827206    -0.28500
H66         H  0.78077863  0.45132567  0.06508238     0.19100
H67         H  0.87482504  0.51619269  0.06719792     0.19100
H68         H  0.77601986  0.08813141  0.41632538     0.19200
H69         H  0.87151235  0.52407360  0.41063464     0.19100
C70         C  0.80765761  0.02083368  0.29225969     0.33000
C71         C  0.81100313  0.02027278  0.19337520     0.31400
C72         C  0.79471779  0.05146527  0.26617530    -0.03200
C73         C  0.83648022  0.02027136  0.27170158    -0.04000
C74         C  0.79493277  0.49240134  0.26512139    -0.03800
C75         C  0.79643998  0.05127609  0.21552152    -0.03200
C76         C  0.83832608  0.01969823  0.22120527    -0.04000
C77         C  0.79483253  0.49220836  0.21441424    -0.03900
C78         C  0.78517018  0.08146602  0.19905089    -0.29200
N79         N  0.77677748  0.09947888  0.23830852     0.17300
C80         C  0.78245979  0.08162126  0.27943027    -0.29200
H81         H  0.77858353  0.09035959  0.31608437     0.19200
C82         C  0.86528204  0.51157374  0.20058292    -0.28200
N83         N  0.88156859  0.50869542  0.24071057     0.16000
C84         C  0.86594307  0.51266952  0.28096890    -0.28200
C85         C  0.78197033  0.46263172  0.19952471    -0.28500
N86         N  0.77436700  0.44527067  0.23984150     0.16500
H87         H  0.77949170  0.45360589  0.16249122     0.19100
C88         C  0.78214594  0.46298770  0.28006113    -0.28500
H89         H  0.77983855  0.45428414  0.31714985     0.19100
H90         H  0.87314790  0.51010748  0.31817601     0.19100
H91         H  0.78377399  0.09009535  0.16170432     0.19200
H92         H  0.87199750  0.50846869  0.16346599     0.19100
O93         O  0.54967502  0.27558569  0.00462593    -0.69900
O94         O  0.47161936  0.26150753  0.04492671    -0.70900
O95         O  0.52358817  0.23735173  0.07638812    -0.59500
O96         O  0.49930732  0.30585929  0.47465961    -0.68000
O97         O  0.49541337  0.26188009  0.42380938    -0.67500
O98         O  0.52046116  0.19191526  0.02798783    -0.58800
O99         O  0.46862597  0.22200506  0.49311786    -0.71300
O100        O  0.54700574  0.23529481  0.45405397    -0.70000
Cu101      Cu  0.51080341  0.27032682  0.02631455     1.04600
Cu102      Cu  0.50761314  0.22699976  0.47194888     1.04300
C103        C  0.56064432  0.25508707  0.97425314     0.96300
C104        C  0.45787669  0.24191553  0.52450678     0.95400
C105        C  0.52607996  0.20523752  0.06926293     0.87500
C106        C  0.49360390  0.29388364  0.43262685     0.93800
O107        O  0.55318972  0.27322499  0.23251985    -0.69900
O108        O  0.47178525  0.27032304  0.21604185    -0.70900
O109        O  0.50904065  0.30858240  0.27554894    -0.59500
O110        O  0.51642055  0.23567717  0.17444677    -0.68000
O111        O  0.51296427  0.19394614  0.22881078    -0.67500
O112        O  0.50814224  0.26667727  0.32997309    -0.58800
O113        O  0.46992707  0.23017415  0.27302592    -0.71300
O114        O  0.55161497  0.23103219  0.28652821    -0.70000
Cu115      Cu  0.51270960  0.27337404  0.22262666     1.04600
Cu116      Cu  0.51061415  0.22910791  0.28168419     1.04300
C117        C  0.56526008  0.25235763  0.26140264     0.96300
C118        C  0.45798698  0.24970059  0.24208106     0.95400
C119        C  0.50738694  0.29850272  0.31948969     0.87500
C120        C  0.51561208  0.20383492  0.18498864     0.93800
O121        O  0.97276889  0.48009474  0.04030928    -0.69900
O122        O  0.05373413  0.47501828  0.02041017    -0.70900
O123        O  0.01965222  0.51339031  0.08034976    -0.59500
O124        O  0.00536920  0.44317742  0.47317395    -0.68000
O125        O  0.99971894  0.00326182  0.43280365    -0.67500
O126        O  0.02123381  0.04394889  0.01405781    -0.58800
O127        O  0.04777546  0.03280157  0.47525243    -0.71300
O128        O  0.96673256  0.04055248  0.49524940    -0.70000
Cu129      Cu  0.01361136  0.47604327  0.03210025     1.04600
Cu130      Cu  0.00699177  0.03846161  0.48387974     1.04300
C131        C  0.95856555  0.50139018  0.01534235     0.96300
C132        C  0.06358454  0.49626202  0.48696671     0.95400
C133        C  0.01999791  0.54524325  0.06981583     0.87500
C134        C  0.00247445  0.45401436  0.42973645     0.93800
O135        O  0.96658443  0.48401190  0.23573780    -0.69900
O136        O  0.04697923  0.47634844  0.20874857    -0.70900
O137        O  0.01042204  0.44358069  0.27335811    -0.59500
O138        O  0.00267631  0.51613061  0.17243520    -0.68000
O139        O  0.01045651  0.05746516  0.21409603    -0.67500
O140        O  0.00383879  0.99494107  0.32810574    -0.58800
O141        O  0.04809109  0.02611251  0.28127290    -0.71300
O142        O  0.96666369  0.02528598  0.26191337    -0.70000
Cu143      Cu  0.00636680  0.47864354  0.22058211     1.04600
Cu144      Cu  0.00711115  0.02754693  0.27305605     1.04300
C145        C  0.95797439  0.50615790  0.26618983     0.96300
C146        C  0.06387224  0.49524502  0.23228889     0.95400
C147        C  0.01606618  0.45354763  0.31644666     0.87500
C148        C  0.00593445  0.54782234  0.18218640     0.93800
C149        C  0.31015809  0.22675595  0.46044582     0.33000
C150        C  0.31143843  0.22864695  0.05943098     0.33000
C151        C  0.29565181  0.19684413  0.48500608    -0.03200
C152        C  0.33846400  0.22596331  0.48457994    -0.04000
C153        C  0.29695428  0.25827636  0.48364481    -0.03800
C154        C  0.29546823  0.19866806  0.03658325    -0.03200
C155        C  0.33924157  0.22631790  0.03424195    -0.04000
C156        C  0.29830700  0.25995998  0.03463426    -0.03900
C157        C  0.28290854  0.16920193  0.05247241    -0.29200
N158        N  0.27701873  0.14865948  0.51075955     0.17300
C159        C  0.28392722  0.16644135  0.47040182    -0.29200
H160        H  0.28143981  0.15739910  0.43337960     0.19200
C161        C  0.36654330  0.22540886  0.04762446    -0.28200
N162        N  0.38185458  0.22490422  0.50831809     0.16000
C163        C  0.36489695  0.22418678  0.46895719    -0.28200
C164        C  0.28720203  0.29078362  0.04861082    -0.28500
N165        N  0.27909693  0.30744631  0.50761745     0.16500
H166        H  0.28493883  0.30004927  0.08545631     0.19100
C167        C  0.28569146  0.28871410  0.46788870    -0.28500
H168        H  0.28294159  0.29690919  0.43054716     0.19100
H169        H  0.37142970  0.22270782  0.43154797     0.19100
H170        H  0.28091440  0.16087976  0.08978041     0.19200
H171        H  0.37471926  0.22583005  0.08443360     0.19100
C172        C  0.31227884  0.22780621  0.21094777     0.33000
C173        C  0.31135212  0.22652665  0.30987037     0.33000
C174        C  0.29901858  0.19598109  0.23376685    -0.03200
C175        C  0.34036561  0.22923358  0.23670408    -0.04000
C176        C  0.29681660  0.25736125  0.23519321    -0.03800
C177        C  0.29861225  0.19549438  0.28449034    -0.03200
C178        C  0.33973906  0.22832797  0.28735160    -0.04000
C179        C  0.29641667  0.25664727  0.28587956    -0.03900
C180        C  0.28659833  0.16533417  0.29855256    -0.29200
N181        N  0.27970576  0.14761291  0.25783709     0.17300
C182        C  0.28707929  0.16587951  0.21806073    -0.29200
H183        H  0.28424008  0.15767465  0.18075468     0.19200
C184        C  0.36624036  0.22977752  0.30415943    -0.28200
N185        N  0.38298213  0.23216929  0.26537931     0.16000
C186        C  0.36746917  0.23178822  0.22385329    -0.28200
C187        C  0.28334444  0.28585614  0.30119545    -0.28500
N188        N  0.27582816  0.30407388  0.26124181     0.16500
H189        H  0.28023615  0.29378212  0.33844203     0.19100
C190        C  0.28387536  0.28709193  0.22074928    -0.28500
H191        H  0.28122872  0.29620388  0.18380644     0.19100
H192        H  0.37527030  0.23283387  0.18721069     0.19100
H193        H  0.28337514  0.15672074  0.33546614     0.19200
H194        H  0.37293107  0.22948469  0.34182456     0.19100
C195        C  0.21205472  0.47857698  0.05957965     0.33000
C196        C  0.20964523  0.47954887  0.46050423     0.33000
C197        C  0.22580208  0.44837945  0.03423942    -0.03200
C198        C  0.18352739  0.47860946  0.03647835    -0.04000
C199        C  0.22249746  0.00858731  0.03293688    -0.03800
C200        C  0.22438531  0.44876382  0.48362240    -0.03200
C201        C  0.18161205  0.47887100  0.48509972    -0.04000
C202        C  0.22238268  0.00785882  0.48170819    -0.03900
C203        C  0.23659484  0.41904645  0.46774764    -0.29200
N204        N  0.24454185  0.40072688  0.50741416     0.17300
C205        C  0.23846060  0.41845870  0.04806570    -0.29200
H206        H  0.24212525  0.40963207  0.08490050     0.19200
C207        C  0.15442594  0.47972301  0.47111195    -0.28200
N208        N  0.13634055  0.98472085  0.51245552     0.16000
C209        C  0.15720542  0.47760895  0.05278756    -0.28200
C210        C  0.23475841  0.03796691  0.46768361    -0.28500
N211        N  0.24326685  0.05481312  0.50839967     0.16500
H212        H  0.23656069  0.04750048  0.43090361     0.19100
C213        C  0.23344322  0.03894089  0.04943071    -0.28500
H214        H  0.23605525  0.04678195  0.08696450     0.19100
H215        H  0.14815437  0.96753247  0.08075034     0.19100
H216        H  0.23896878  0.41097159  0.43038787     0.19200
H217        H  0.14255370  0.98631773  0.43425962     0.19100
C218        C  0.21064152  0.47859678  0.30934366     0.33000
C219        C  0.21081711  0.47754734  0.21039646     0.33000
C220        C  0.22263953  0.44615754  0.28620716    -0.03200
C221        C  0.18261403  0.48163456  0.28423219    -0.04000
C222        C  0.22354003  0.00792224  0.28234146    -0.03800
C223        C  0.22272703  0.44571299  0.23546067    -0.03200
C224        C  0.18252054  0.48093877  0.23356786    -0.04000
C225        C  0.22497917  0.00707519  0.23164617    -0.03900
C226        C  0.23418247  0.41514702  0.22128691    -0.29200
N227        N  0.24095852  0.39721499  0.26192413     0.17300
C228        C  0.23410140  0.41573481  0.30178457    -0.29200
H229        H  0.23722760  0.40765420  0.33907455     0.19200
C230        C  0.15592491  0.48684143  0.21822692    -0.28200
N231        N  0.13768347  0.98328998  0.24643757     0.16000
C232        C  0.15639906  0.48844924  0.29858050    -0.28200
C233        C  0.23857682  0.03609966  0.21722404    -0.28500
N234        N  0.24531394  0.05433219  0.25761918     0.16500
H235        H  0.24241231  0.04401758  0.18021999     0.19100
C236        C  0.23631007  0.03755794  0.29757309    -0.28500
H237        H  0.23803644  0.04686416  0.33458597     0.19100
H238        H  0.14353297  0.98414722  0.32497929     0.19100
H239        H  0.23734449  0.40655174  0.18433400     0.19200
H240        H  0.14935207  0.97994959  0.17086029     0.19100
C241        C  0.20941582  0.47994205  0.40688715    -0.10300
C242        C  0.21008238  0.47943633  0.36294060    -0.11800
C243        C  0.21232084  0.47781024  0.11307447    -0.10300
C244        C  0.21141856  0.47735939  0.15692821    -0.11800
C245        C  0.26771927  0.11497839  0.25735027    -0.10300
C246        C  0.25749399  0.08685278  0.25757802    -0.11800
C247        C  0.25301607  0.36456444  0.26234686    -0.10300
C248        C  0.26343107  0.33650539  0.26192899    -0.11800
C249        C  0.26545197  0.11571474  0.51063632    -0.10300
C250        C  0.25534919  0.08745967  0.50961647    -0.11800
C251        C  0.26727753  0.34021342  0.50675017    -0.10300
C252        C  0.25688182  0.36827428  0.50659477    -0.11800
C253        C  0.31022416  0.22613940  0.40706401    -0.10300
C254        C  0.31078737  0.22602583  0.36324480    -0.11800
C255        C  0.31236418  0.22911401  0.11317670    -0.10300
C256        C  0.31263379  0.22864226  0.15723254    -0.11800
C257        C  0.09225778  0.00217649  0.26907709    -0.13400
C258        C  0.10853695  0.98365420  0.24026027    -0.28600
H259        H  0.10106329  0.01760947  0.29815639     0.15600
H260        H  0.10415618  0.51171215  0.29317730     0.16200
C261        C  0.10710639  0.98649769  0.51751379    -0.13400
C262        C  0.09108210  0.00583430  0.48840850    -0.28600
H263        H  0.10205486  0.46624466  0.04887356     0.15600
H264        H  0.10018821  0.02071104  0.45946745     0.16200
C265        C  0.01849323  0.42908508  0.35654289    -0.13400
C266        C  0.99850194  0.43011568  0.38920323    -0.28600
H267        H  0.03923153  0.42757205  0.37109788     0.15600
H268        H  0.96714175  0.95577767  0.38874255     0.16200
C269        C  0.02429278  0.56980748  0.10943727    -0.13400
C270        C  0.00420662  0.57207984  0.14178071    -0.28600
H271        H  0.05378780  0.05132569  0.11143519     0.15600
H272        H  0.98357323  0.57425922  0.12692982     0.16200
C273        C  0.42800489  0.24828720  0.23598538    -0.13400
C274        C  0.41227165  0.23348301  0.26967373    -0.28600
H275        H  0.41872133  0.26036939  0.20428731     0.15600
H276        H  0.42171072  0.22363331  0.30283512     0.16200
C277        C  0.42835069  0.23909507  0.53541676    -0.13400
C278        C  0.41113716  0.22306846  0.50441206    -0.28600
H279        H  0.42030570  0.25313651  0.56617690     0.15600
H280        H  0.41901788  0.21319371  0.96760172     0.16200
C281        C  0.48554246  0.31645430  0.39241437    -0.13400
C282        C  0.50483148  0.32308674  0.35961642    -0.28600
H283        H  0.46562557  0.30946381  0.37745530     0.15600
H284        H  0.52444968  0.33224445  0.37326607     0.16200
C285        C  0.53512278  0.18424463  0.11045602    -0.13400
C286        C  0.51666753  0.17887351  0.14510142    -0.28600
H287        H  0.55542135  0.19155826  0.12324080     0.15600
H288        H  0.49662605  0.16962613  0.13377615     0.16200
C289        C  0.91021725  0.50059276  0.23872233    -0.13400
C290        C  0.92827404  0.51083141  0.27303718    -0.28600
H291        H  0.91768194  0.48837626  0.20593776     0.15600
H292        H  0.91704702  0.98742383  0.19792973     0.16200
C293        C  0.80728706  0.02145793  0.38982078    -0.10300
C294        C  0.80667238  0.02119753  0.34584016    -0.11800
C295        C  0.81295839  0.02047663  0.13987283    -0.10300
C296        C  0.81398416  0.02137847  0.09595051    -0.11800
C297        C  0.91230262  0.51701125  0.98702207    -0.13400
C298        C  0.92853056  0.50245274  0.02105327    -0.28600
H299        H  0.92009609  0.53491234  0.45293155     0.15600
H300        H  0.92087193  0.98766177  0.05006297     0.16200
C301        C  0.76549603  0.13235926  0.23711282    -0.10300
C302        C  0.75599510  0.16076077  0.23710027    -0.11800
C303        C  0.75330717  0.38411694  0.24043307    -0.10300
C304        C  0.76289235  0.41248170  0.24012589    -0.11800
C305        C  0.61047129  0.26758683  0.23126984    -0.13400
C306        C  0.59523264  0.25277993  0.26561516    -0.28600
H307        H  0.60065143  0.27826904  0.19897503     0.15600
H308        H  0.60492100  0.23970772  0.29613665     0.16200
C309        C  0.76917463  0.13489436  0.99213280    -0.10300
C310        C  0.75761147  0.16224158  0.99033547    -0.11800
C311        C  0.75238568  0.38314977  0.98483620    -0.10300
C312        C  0.76300044  0.41108705  0.98590532    -0.11800
C313        C  0.70924052  0.27041396  0.34079149    -0.10300
C314        C  0.70795987  0.27004506  0.38469419    -0.11800
C315        C  0.71015128  0.27228075  0.09054057    -0.10300
C316        C  0.71094896  0.27232904  0.13450108    -0.11800
C317        C  0.60744605  0.27239768  0.99582518    -0.13400
C318        C  0.59011230  0.25804067  0.96340148    -0.28600
H319        H  0.59932348  0.28263907  0.02947491     0.15600
H320        H  0.59879733  0.24686052  0.43344726     0.16200
C321        C  0.70706792  0.27033460  0.93799753     0.33000
C322        C  0.70849766  0.27158831  0.53726935     0.33000
C323        C  0.72104461  0.30186301  0.96092516    -0.03200
C324        C  0.67915539  0.26978512  0.96325058    -0.04000
C325        C  0.72226413  0.24031849  0.96244371    -0.03800
C326        C  0.72367745  0.30085573  0.51263930    -0.03200
C327        C  0.68020767  0.27344849  0.51321752    -0.04000
C328        C  0.72091840  0.23976853  0.51398562    -0.03900
C329        C  0.73627554  0.33065906  0.52711718    -0.29200
N330        N  0.74350876  0.34799947  0.48660771     0.17300
C331        C  0.73253343  0.33213963  0.94525698    -0.29200
H332        H  0.73471674  0.34041140  0.90795673     0.19200
C333        C  0.65386470  0.27638547  0.52881383    -0.28200
N334        N  0.63695943  0.27653722  0.48942587     0.16000
C335        C  0.65176613  0.26965345  0.95002529    -0.28200
C336        C  0.73184862  0.20934715  0.53003217    -0.28500
N337        N  0.73817442  0.19040910  0.49047590     0.16500
H338        H  0.73460702  0.20131715  0.56744757     0.19100
C339        C  0.73528919  0.21063573  0.94825749    -0.28500
H340        H  0.73800177  0.20170309  0.91135032     0.19100
H341        H  0.64349907  0.26967059  0.91331678     0.19100
H342        H  0.73910229  0.33967190  0.56408410     0.19200
H343        H  0.64730932  0.27798071  0.56637351     0.19100
C344        C  0.70856967  0.27057189  0.68798757     0.33000
C345        C  0.70754343  0.26977158  0.78685989     0.33000
C346        C  0.72117532  0.30181643  0.71316912    -0.03200
C347        C  0.68016595  0.26874465  0.71049419    -0.04000
C348        C  0.72363299  0.24057333  0.71234500    -0.03800
C349        C  0.72065355  0.30154629  0.76386440    -0.03200
C350        C  0.67959920  0.26808690  0.76111914    -0.04000
C351        C  0.72311932  0.24013488  0.76308572    -0.03900
C352        C  0.73222393  0.33186167  0.77950921    -0.29200
N353        N  0.73963584  0.35006007  0.73971851     0.17300
C354        C  0.73301568  0.33209647  0.69904298    -0.29200
H355        H  0.73645282  0.34052909  0.66211768     0.19200
C356        C  0.65260253  0.26647888  0.77431903    -0.28200
N357        N  0.63695376  0.26646828  0.73303503     0.16000
C358        C  0.65357351  0.26810725  0.69402399    -0.28200
C359        C  0.73580966  0.21037373  0.77803912    -0.28500
N360        N  0.74394642  0.19311822  0.73785946     0.16500
H361        H  0.73813133  0.20136571  0.81508722     0.19100
C362        C  0.73665715  0.21115353  0.69757064    -0.28500
H363        H  0.73978107  0.20289951  0.66047071     0.19100
H364        H  0.64669578  0.26873740  0.65628804     0.19100
H365        H  0.73495555  0.34014962  0.81680254     0.19200
H366        H  0.64492857  0.26614681  0.81114311     0.19100
C367        C  0.80953486  0.02087815  0.54252691     0.33000
C368        C  0.81259558  0.02273380  0.94334705     0.33000
C369        C  0.79333137  0.05031908  0.51893844    -0.03200
C370        C  0.83724446  0.02360622  0.51787905    -0.04000
C371        C  0.79776918  0.48840310  0.51438943    -0.03800
C372        C  0.80032343  0.05420654  0.96786415    -0.03200
C373        C  0.84104316  0.02069882  0.96702698    -0.04000
C374        C  0.79646146  0.49067650  0.96376518    -0.03900
C375        C  0.78878119  0.08457475  0.95286941    -0.29200
N376        N  0.78218262  0.10280784  0.99297245     0.17300
C377        C  0.78031191  0.07967381  0.53396935    -0.29200
H378        H  0.77802387  0.08841370  0.57105443     0.19200
C379        C  0.86629063  0.51852161  0.94974760    -0.28200
N380        N  0.88292696  0.51674419  0.98955617     0.16000
C381        C  0.86643044  0.52116587  0.52844799    -0.28200
C382        C  0.78338753  0.46149189  0.94779851    -0.28500
N383        N  0.77569484  0.44333664  0.98734547     0.16500
H384        H  0.78029010  0.45360634  0.91039130     0.19100
C385        C  0.78577496  0.45822354  0.52857827    -0.28500
H386        H  0.78309828  0.44932695  0.56549384     0.19100
H387        H  0.87439211  0.52069224  0.56538226     0.19100
H388        H  0.78539680  0.09282129  0.91568197     0.19200
H389        H  0.87315333  0.51916550  0.91248821     0.19100
C390        C  0.81131316  0.02196334  0.79243165     0.33000
C391        C  0.81242972  0.02062364  0.69355563     0.31400
C392        C  0.79653239  0.05156104  0.76680663    -0.03200
C393        C  0.83971024  0.02308621  0.76986447    -0.04000
C394        C  0.79753114  0.48894912  0.76528008    -0.03800
C395        C  0.79715909  0.05096536  0.71613406    -0.03200
C396        C  0.84054085  0.02211529  0.71925230    -0.04000
C397        C  0.79775562  0.48857144  0.71452975    -0.03900
C398        C  0.78524329  0.08090739  0.69990273    -0.29200
N399        N  0.77742020  0.09922282  0.73931443     0.17300
C400        C  0.78415990  0.08169462  0.78032908    -0.29200
H401        H  0.78120678  0.09080280  0.81708439     0.19200
C402        C  0.86761105  0.51976773  0.70229123    -0.28200
N403        N  0.88333727  0.52141190  0.74349360     0.16000
C404        C  0.86668278  0.52147412  0.78261169    -0.28200
C405        C  0.78468490  0.45901860  0.69970104    -0.28500
N406        N  0.77664398  0.44183208  0.73998135     0.16500
H407        H  0.78156168  0.45042515  0.66260705     0.19100
C408        C  0.78430990  0.45973289  0.78018967    -0.28500
H409        H  0.78082939  0.45183394  0.81732312     0.19100
H410        H  0.87349712  0.52317920  0.82011960     0.19100
H411        H  0.78332608  0.08933916  0.66252235     0.19200
H412        H  0.87523241  0.52032335  0.66548413     0.19100
O413        O  0.55051790  0.27870829  0.50585470    -0.69900
O414        O  0.47222219  0.26518536  0.54526968    -0.70900
O415        O  0.52415645  0.23859480  0.57530391    -0.59500
O416        O  0.49780099  0.30080648  0.97213986    -0.68000
O417        O  0.49436160  0.25554947  0.92345180    -0.67500
O418        O  0.52004467  0.19465889  0.52442100    -0.58800
O419        O  0.46867323  0.21687306  0.99510205    -0.71300
O420        O  0.54661235  0.23105718  0.95466991    -0.70000
Cu421      Cu  0.51165379  0.27353043  0.52724755     1.04600
Cu422      Cu  0.50743452  0.22231364  0.97343856     1.04300
C423        C  0.56125118  0.25878698  0.47449111     0.96300
C424        C  0.45767621  0.23737348  0.02538870     0.95400
C425        C  0.52625906  0.20663897  0.56622332     0.87500
C426        C  0.49175516  0.28764662  0.93099677     0.93800
O427        O  0.54982711  0.26991659  0.72889980    -0.69900
O428        O  0.46834294  0.26403077  0.71330698    -0.70900
O429        O  0.50499394  0.30311862  0.77273023    -0.59500
O430        O  0.51361305  0.23187835  0.67048418    -0.68000
O431        O  0.51258245  0.18917709  0.72365440    -0.67500
O432        O  0.50363848  0.26057769  0.82617668    -0.58800
O433        O  0.46753332  0.22200157  0.76761831    -0.71300
O434        O  0.54895105  0.22813328  0.78360437    -0.70000
Cu435      Cu  0.50921231  0.26864449  0.71935286     1.04600
Cu436      Cu  0.50814500  0.22356761  0.77732668     1.04300
C437        C  0.56223074  0.24984592  0.75850590     0.96300
C438        C  0.45509718  0.24203687  0.73801617     0.95400
C439        C  0.50290411  0.29253343  0.81632008     0.87500
C440        C  0.51459068  0.19993085  0.68009291     0.93800
O441        O  0.97048645  0.48177404  0.53429101    -0.69900
O442        O  0.05167092  0.47586079  0.51620907    -0.70900
O443        O  0.01670488  0.51362467  0.57609252    -0.59500
O444        O  0.00809862  0.44131403  0.97889988    -0.68000
O445        O  0.00039176  0.97282542  0.91489837    -0.67500
O446        O  0.01330171  0.07109119  0.53976562    -0.58800
O447        O  0.05061046  0.00138986  0.94939593    -0.71300
O448        O  0.97117103  0.01530817  0.97875372    -0.70000
Cu449      Cu  0.01116247  0.47718568  0.52688673     1.04600
Cu450      Cu  0.01075900  0.00976659  0.96217992     1.04300
C451        C  0.95673335  0.50385849  0.51001856     0.96300
C452        C  0.06519110  0.49517540  0.99032573     0.95400
C453        C  0.01704145  0.54565124  0.56684768     0.87500
C454        C  0.00512605  0.45172386  0.93520809     0.93800
O455        O  0.97296108  0.48297763  0.70506000    -0.69900
O456        O  0.05143751  0.46774800  0.74467481    -0.70900
O457        O  0.99985537  0.44310111  0.77763016    -0.59500
O458        O  0.02497992  0.50727888  0.67398214    -0.68000
O459        O  0.02091372  0.05452750  0.73977928    -0.67500
O460        O  0.99874258  0.97664800  0.82656839    -0.58800
O461        O  0.04941870  0.00710337  0.80054678    -0.71300
O462        O  0.97016421  0.02360697  0.76655149    -0.70000
Cu463      Cu  0.01236868  0.47375728  0.72347666     1.04600
Cu464      Cu  0.00965824  0.01676593  0.78564133     1.04300
C465        C  0.95920752  0.50671680  0.72536374     0.96300
C466        C  0.06309758  0.48827618  0.77460350     0.95400
C467        C  0.99476189  0.45612648  0.81908043     0.87500
C468        C  0.02787894  0.53929323  0.68208165     0.93800
C469        C  0.30953380  0.22708716  0.96031449     0.33000
C470        C  0.31086220  0.22799189  0.55923603     0.33000
C471        C  0.29450073  0.19801992  0.98582962    -0.03200
C472        C  0.33807730  0.22531623  0.98358313    -0.04000
C473        C  0.29739031  0.25906646  0.98385121    -0.03800
C474        C  0.29596061  0.19734220  0.53569770    -0.03200
C475        C  0.33912738  0.22696682  0.53520357    -0.04000
C476        C  0.29722616  0.25888703  0.53434135    -0.03900
C477        C  0.28424458  0.16707201  0.55085663    -0.29200
N478        N  0.27448385  0.15119555  0.01277080     0.17300
C479        C  0.28142430  0.16839403  0.97196779    -0.29200
H480        H  0.27809516  0.15936907  0.93512448     0.19200
C481        C  0.36643110  0.22667189  0.54923630    -0.28200
N482        N  0.38162924  0.22356877  0.00639542     0.16000
C483        C  0.36439441  0.22332234  0.96732842    -0.28200
C484        C  0.28603426  0.28968499  0.54837183    -0.28500
N485        N  0.27970503  0.30814023  0.00780491     0.16500
H486        H  0.28359359  0.29879346  0.58526256     0.19100
C487        C  0.28578333  0.28920413  0.96807844    -0.28500
H488        H  0.28221201  0.29693553  0.93073883     0.19100
H489        H  0.37065825  0.22225229  0.92977358     0.19100
H490        H  0.28199378  0.15855330  0.58803383     0.19200
H491        H  0.37439552  0.22711031  0.58614224     0.19100
C492        C  0.30938049  0.22814254  0.71007229     0.33000
C493        C  0.30880242  0.22677002  0.80905179     0.33000
C494        C  0.29442469  0.19767026  0.73279012    -0.03200
C495        C  0.33745089  0.22683091  0.73533170    -0.04000
C496        C  0.29583400  0.25900985  0.73449292    -0.03800
C497        C  0.29411199  0.19708562  0.78354994    -0.03200
C498        C  0.33711503  0.22588440  0.78595297    -0.04000
C499        C  0.29559730  0.25824314  0.78524387    -0.03900
C500        C  0.28166881  0.16716501  0.79733269    -0.29200
N501        N  0.27450296  0.14981364  0.75643114     0.17300
C502        C  0.28213977  0.16795168  0.71679418    -0.29200
H503        H  0.27970678  0.15960551  0.67945728     0.19200
C504        C  0.36380086  0.22440492  0.80193064    -0.28200
N505        N  0.38025295  0.22512536  0.76255746     0.16000
C506        C  0.36440394  0.22650478  0.72159543    -0.28200
C507        C  0.28415926  0.28841685  0.80074584    -0.28500
N508        N  0.27751776  0.30723974  0.76092687     0.16500
H509        H  0.28144135  0.29647541  0.83803702     0.19100
C510        C  0.28447389  0.28974679  0.72023057    -0.28500
H511        H  0.28204024  0.29904766  0.68333854     0.19100
H512        H  0.37188067  0.22693539  0.68465541     0.19100
H513        H  0.27883570  0.15812981  0.83415018     0.19200
H514        H  0.37082259  0.22342507  0.83934376     0.19100
C515        C  0.21089965  0.47814445  0.55949051     0.33000
C516        C  0.21011981  0.47978453  0.96059866     0.33000
C517        C  0.22503832  0.44808833  0.53433245    -0.03200
C518        C  0.18238788  0.47786621  0.53577798    -0.04000
C519        C  0.22353632  0.00684713  0.53241186    -0.03800
C520        C  0.22477989  0.44891382  0.98349162    -0.03200
C521        C  0.18241306  0.47944493  0.98585881    -0.04000
C522        C  0.22279072  0.00937545  0.98222391    -0.03900
C523        C  0.23679126  0.41915911  0.96753131    -0.29200
N524        N  0.24501785  0.40104973  0.00718373     0.17300
C525        C  0.23759575  0.41803233  0.54823014    -0.29200
H526        H  0.24087618  0.40902848  0.58508118     0.19200
C527        C  0.15525402  0.47946993  0.97237851    -0.28200
N528        N  0.13959250  0.96871004  0.00313512     0.16000
C529        C  0.15584729  0.47742486  0.55144098    -0.28200
C530        C  0.23403310  0.04027633  0.96894335    -0.28500
N531        N  0.24038063  0.05786504  0.01018172     0.16500
H532        H  0.23723308  0.04937828  0.93227472     0.19100
C533        C  0.23649590  0.03620795  0.54809046    -0.28500
H534        H  0.23988704  0.04405148  0.58544475     0.19100
H535        H  0.14785350  0.98081752  0.58857936     0.19100
H536        H  0.23889688  0.41093548  0.93018688     0.19200
H537        H  0.14892842  0.97129598  0.92605353     0.19100
C538        C  0.20923896  0.47932720  0.80950842     0.33000
C539        C  0.21050325  0.47824499  0.71056744     0.33000
C540        C  0.22475085  0.44915445  0.78684890    -0.03200
C541        C  0.18128152  0.47750291  0.78366363    -0.04000
C542        C  0.22280505  0.00801121  0.78160669    -0.03800
C543        C  0.22543348  0.44882372  0.73613437    -0.03200
C544        C  0.18202292  0.47667064  0.73302296    -0.04000
C545        C  0.22306173  0.00744857  0.73090957    -0.03900
C546        C  0.23821002  0.41915136  0.72218842    -0.29200
N547        N  0.24517295  0.40153179  0.76291481     0.17300
C548        C  0.23707627  0.41933739  0.80265691    -0.29200
H549        H  0.23911248  0.41064236  0.83987889     0.19200
C550        C  0.15553188  0.47376565  0.71639392    -0.28200
N551        N  0.13879040  0.97212622  0.75308252     0.16000
C552        C  0.15420114  0.47573641  0.79668780    -0.28200
C553        C  0.23473087  0.03756461  0.71577702    -0.28500
N554        N  0.24137820  0.05610710  0.75589880     0.16500
H555        H  0.23778874  0.04565763  0.67860513     0.19100
C556        C  0.23425890  0.03851530  0.79630363    -0.28500
H557        H  0.23685004  0.04749705  0.83333816     0.19100
H558        H  0.14698767  0.97366271  0.83108559     0.19100
H559        H  0.24128526  0.41036685  0.68530223     0.19200
H560        H  0.14854162  0.97128492  0.67640092     0.19100
C561        C  0.20904523  0.48017909  0.90702671    -0.10300
C562        C  0.20871657  0.47991641  0.86306447    -0.11800
C563        C  0.21132290  0.47756197  0.61306923    -0.10300
C564        C  0.21112192  0.47765758  0.65701583    -0.11800
C565        C  0.26279140  0.11712410  0.75558505    -0.10300
C566        C  0.25291300  0.08888988  0.75558153    -0.11800
C567        C  0.25675196  0.36870373  0.76314452    -0.10300
C568        C  0.26637897  0.34029193  0.76206154    -0.11800
C569        C  0.26237318  0.11867115  0.01322644    -0.10300
C570        C  0.25215976  0.09057000  0.01208922    -0.11800
C571        C  0.26771379  0.34070629  0.00677019    -0.10300
C572        C  0.25729942  0.36866752  0.00639192    -0.11800
C573        C  0.30878532  0.22632938  0.90666616    -0.10300
C574        C  0.30863391  0.22621263  0.86267595    -0.11800
C575        C  0.31080943  0.22858736  0.61271466    -0.10300
C576        C  0.31004994  0.22867759  0.65659239    -0.11800
C577        C  0.09290078  0.98254744  0.78406081    -0.13400
C578        C  0.10945992  0.97089212  0.74904827    -0.28600
H579        H  0.10144675  0.99273216  0.81769123     0.15600
H580        H  0.10069536  0.46084066  0.71791978     0.16200
C581        C  0.11034161  0.96534813  0.00373102    -0.13400
C582        C  0.09413192  0.97720419  0.96761026    -0.28600
H583        H  0.10037754  0.46787098  0.54691013     0.15600
H584        H  0.10299698  0.98915940  0.93585209     0.16200
C585        C  0.98479182  0.43502651  0.85916442    -0.13400
C586        C  0.00274798  0.42738665  0.89463808    -0.28600
H587        H  0.96490768  0.44381325  0.87129852     0.15600
H588        H  0.98338710  0.89063717  0.90615558     0.16200
C589        C  0.01994819  0.56943152  0.60787006    -0.13400
C590        C  0.03801181  0.56077136  0.64261125    -0.28600
H591        H  0.99954036  0.09257006  0.63531735     0.15600
H592        H  0.05769372  0.55175513  0.62978954     0.16200
C593        C  0.42513900  0.24014586  0.73230518    -0.13400
C594        C  0.40958531  0.22452390  0.76554177    -0.28600
H595        H  0.41561331  0.25351682  0.70195956     0.15600
H596        H  0.41915098  0.21342160  0.79770737     0.16200
C597        C  0.42823757  0.23436915  0.03599346    -0.13400
C598        C  0.41087880  0.22191550  0.00203580    -0.28600
H599        H  0.42048093  0.24589932  0.06894635     0.15600
H600        H  0.41933789  0.21142850  0.47176492     0.16200
C601        C  0.48195410  0.30895755  0.89065142    -0.13400
C602        C  0.50027235  0.31676914  0.85676203    -0.28600
H603        H  0.46217715  0.30029709  0.87695210     0.15600
H604        H  0.51967155  0.32752236  0.86891487     0.16200
C605        C  0.53575477  0.18413919  0.60557562    -0.13400
C606        C  0.51739791  0.17597826  0.63930231    -0.28600
H607        H  0.55563312  0.19215198  0.61961372     0.15600
H608        H  0.49798514  0.16551952  0.62672269     0.16200
C609        C  0.91264994  0.52380466  0.74748762    -0.13400
C610        C  0.92951469  0.50948371  0.71499214    -0.28600
H611        H  0.92127214  0.53441273  0.78086521     0.15600
H612        H  0.92127074  0.00111063  0.68653412     0.16200
C613        C  0.81185355  0.02291903  0.88983659    -0.10300
C614        C  0.81121761  0.02265021  0.84592840    -0.11800
C615        C  0.81230103  0.02018413  0.63999735    -0.10300
C616        C  0.81088462  0.02047480  0.59608370    -0.11800
C617        C  0.91100225  0.52293825  0.48451216    -0.13400
C618        C  0.92693735  0.50591690  0.51638793    -0.28600
H619        H  0.92147272  0.52758082  0.95450412     0.15600
H620        H  0.91608939  0.00912842  0.56070351     0.16200
C621        C  0.76590910  0.13214994  0.73815539    -0.10300
C622        C  0.75595102  0.16045696  0.73783532    -0.11800
C623        C  0.75229009  0.38231878  0.74027425    -0.10300
C624        C  0.76340540  0.40993455  0.74017071    -0.11800
C625        C  0.60764647  0.26621311  0.72967936    -0.13400
C626        C  0.59218917  0.25140754  0.76375056    -0.28600
H627        H  0.59801473  0.27656351  0.69705025     0.15600
H628        H  0.60174863  0.23870472  0.79463416     0.16200
C629        C  0.75953619  0.12935761  0.49334694    -0.10300
C630        C  0.74947352  0.15749063  0.49199768    -0.11800
C631        C  0.75554702  0.38050812  0.48641509    -0.10300
C632        C  0.76588109  0.40849049  0.48698730    -0.11800
C633        C  0.70677077  0.26950066  0.84043197    -0.10300
C634        C  0.70639864  0.26970737  0.88439533    -0.11800
C635        C  0.70880432  0.27181585  0.59071476    -0.10300
C636        C  0.70887173  0.27121204  0.63457181    -0.11800
C637        C  0.60774907  0.27900047  0.49306925    -0.13400
C638        C  0.59065313  0.26180707  0.46323494    -0.28600
H639        H  0.59958699  0.29166538  0.52495275     0.15600
H640        H  0.59800491  0.24512965  0.93153103     0.16200
C641        C  0.70989248  0.77019172  0.44031037     0.33000
C642        C  0.71113501  0.77204191  0.03887624     0.33000
C643        C  0.72690276  0.79906414  0.46372114    -0.03200
C644        C  0.68236016  0.77353600  0.46601233    -0.04000
C645        C  0.72213795  0.73800161  0.46406412    -0.03800
C646        C  0.72376645  0.80385792  0.01529271    -0.03200
C647        C  0.68320236  0.76962369  0.01329855    -0.04000
C648        C  0.72712326  0.74253239  0.01562052    -0.03900
C649        C  0.73495878  0.83445416  0.03059486    -0.29200
N650        N  0.74197399  0.85265948  0.99060608     0.17300
C651        C  0.73991430  0.82841244  0.44872659    -0.29200
H652        H  0.74160813  0.83756632  0.41173663     0.19200
C653        C  0.65647575  0.76496429  0.02681037    -0.28200
N654        N  0.64091256  0.76155054  0.98570594     0.16000
C655        C  0.65509472  0.77565960  0.45307191    -0.28200
C656        C  0.73921715  0.71249279  0.03108072    -0.28500
N657        N  0.74686372  0.69452726  0.99121446     0.16500
H658        H  0.74115978  0.70362326  0.06824959     0.19100
C659        C  0.73283548  0.70721361  0.44912186    -0.28500
H660        H  0.73505492  0.69846423  0.41201444     0.19100
H661        H  0.64665061  0.77556678  0.41650762     0.19100
H662        H  0.73765029  0.84295575  0.06782158     0.19200
H663        H  0.64917810  0.76266981  0.06365807     0.19100
C664        C  0.70812727  0.77093816  0.18983241     0.33000
C665        C  0.70786415  0.77071559  0.28890647     0.33000
C666        C  0.72277847  0.80092971  0.21452296    -0.03200
C667        C  0.67977716  0.77199867  0.21311212    -0.04000
C668        C  0.72151542  0.73979472  0.21423331    -0.03800
C669        C  0.72263166  0.80099323  0.26524971    -0.03200
C670        C  0.67965020  0.77165312  0.26384387    -0.04000
C671        C  0.72140441  0.73966483  0.26497183    -0.03900
C672        C  0.73526302  0.83075968  0.28025838    -0.29200
N673        N  0.74298084  0.84821571  0.24002482     0.17300
C674        C  0.73549912  0.83041401  0.19973108    -0.29200
H675        H  0.73844725  0.83877578  0.16263836     0.19200
C676        C  0.65276447  0.77276246  0.27793193    -0.28200
N677        N  0.63665464  0.77397898  0.23721192     0.16000
C678        C  0.65296263  0.77381294  0.19752706    -0.28200
C679        C  0.73398672  0.70988120  0.28001776    -0.28500
N680        N  0.74157867  0.69227117  0.23983431     0.16500
H681        H  0.73726328  0.70153934  0.31717876     0.19100
C682        C  0.73415164  0.71013681  0.19949740    -0.28500
H683        H  0.73757311  0.70203457  0.16241570     0.19100
H684        H  0.64578267  0.77466751  0.16013868     0.19100
H685        H  0.73801101  0.83951126  0.31735668     0.19200
H686        H  0.64556011  0.77317406  0.31497606     0.19100
C687        C  0.81181257  0.51983826  0.03942216     0.33000
C688        C  0.81019099  0.52038203  0.44006445     0.33000
C689        C  0.79847382  0.55143777  0.01577805    -0.03200
C690        C  0.84005919  0.51856251  0.01551496    -0.04000
C691        C  0.79802346  0.99263356  0.01790595    -0.03800
C692        C  0.79552316  0.55000350  0.46480105    -0.03200
C693        C  0.83852335  0.52157727  0.46384239    -0.04000
C694        C  0.79635890  0.98947318  0.46749806    -0.03900
C695        C  0.78260290  0.57949008  0.45018352    -0.29200
N696        N  0.77537046  0.59687056  0.49062888     0.17300
C697        C  0.78655579  0.58148444  0.03117832    -0.29200
H698        H  0.78386315  0.58962399  0.06844497     0.19200
C699        C  0.86333000  0.02707124  0.45240638    -0.28200
N700        N  0.87978926  0.02819944  0.49258111     0.16000
C701        C  0.86904304  0.01802175  0.03163928    -0.28200
C702        C  0.78599265  0.95860310  0.45218039    -0.28500
N703        N  0.78055020  0.93969461  0.49215651     0.16500
H704        H  0.78313135  0.95019088  0.41493963     0.19100
C705        C  0.78522044  0.96298787  0.03243211    -0.28500
H706        H  0.78285189  0.95409964  0.06941078     0.19100
H707        H  0.87701607  0.01741714  0.06851880     0.19100
H708        H  0.77934734  0.58815490  0.41316082     0.19200
H709        H  0.87031405  0.02825315  0.41528704     0.19100
C710        C  0.81109916  0.52142566  0.28939076     0.33000
C711        C  0.81092739  0.52109982  0.19046605     0.31400
C712        C  0.79901127  0.55333643  0.26498034    -0.03200
C713        C  0.83928973  0.51830098  0.26589022    -0.04000
C714        C  0.79412744  0.99028077  0.26666547    -0.03800
C715        C  0.79891217  0.55327467  0.21421261    -0.03200
C716        C  0.83904908  0.51795115  0.21521812    -0.04000
C717        C  0.79579590  0.98993966  0.21593331    -0.03900
C718        C  0.78652961  0.58323125  0.19924838    -0.29200
N719        N  0.77932796  0.60108302  0.23949162     0.17300
C720        C  0.78674690  0.58320102  0.27979681    -0.29200
H721        H  0.78321734  0.59119340  0.31689977     0.19200
C722        C  0.86566904  0.01820414  0.21028090    -0.28200
N723        N  0.88014091  0.01828854  0.25288032     0.16000
C724        C  0.86254757  0.01981177  0.29044323    -0.28200
C725        C  0.78487876  0.95935445  0.20014285    -0.28500
N726        N  0.77669211  0.94162234  0.23980739     0.16500
H727        H  0.78376901  0.95018703  0.16301459     0.19100
C728        C  0.78223068  0.96004131  0.28053113    -0.28500
H729        H  0.77865162  0.95154720  0.31738185     0.19100
H730        H  0.86838252  0.02020653  0.32848972     0.19100
H731        H  0.78275232  0.59129359  0.16211143     0.19200
H732        H  0.87436715  0.01765898  0.17428230     0.19100
O733        O  0.54910348  0.77636705  0.03781280    -0.69900
O734        O  0.46816476  0.76825479  0.01658860    -0.70900
O735        O  0.50699017  0.73545633  0.07616617    -0.59500
O736        O  0.50556906  0.80941541  0.47518773    -0.68000
O737        O  0.50067426  0.76593353  0.42383061    -0.67500
O738        O  0.51377445  0.69460776  0.02142307    -0.58800
O739        O  0.47108209  0.72668162  0.49171976    -0.71300
O740        O  0.55049897  0.73706719  0.45749699    -0.70000
Cu741      Cu  0.50836761  0.77384859  0.02896425     1.04600
Cu742      Cu  0.51067053  0.73028128  0.47290403     1.04300
C743        C  0.56521228  0.75799792  0.01259398     0.96300
C744        C  0.46029991  0.74706307  0.52248490     0.95400
C745        C  0.51006317  0.70392523  0.06525768     0.87500
C746        C  0.50082222  0.79810379  0.43246642     0.93800
O747        O  0.54863095  0.77897168  0.23547296    -0.69900
O748        O  0.46898738  0.76141985  0.20784299    -0.70900
O749        O  0.49763020  0.80393950  0.27351495    -0.59500
O750        O  0.51927894  0.73705340  0.17108149    -0.68000
O751        O  0.51931050  0.69343518  0.22285233    -0.67500
O752        O  0.49872227  0.76054656  0.32569618    -0.58800
O753        O  0.46953525  0.71903148  0.26167127    -0.71300
O754        O  0.54926856  0.73585648  0.28808524    -0.70000
Cu755      Cu  0.50873001  0.77184370  0.22007870     1.04600
Cu756      Cu  0.50934627  0.72580990  0.27657679     1.04300
C757        C  0.56170712  0.75932957  0.26480497     0.96300
C758        C  0.45656268  0.73818420  0.23158370     0.95400
C759        C  0.49369009  0.79188854  0.31593565     0.87500
C760        C  0.52235708  0.70521172  0.18005686     0.93800
O761        O  0.97308269  0.97443130  0.03470435    -0.69900
O762        O  0.05255887  0.96034117  0.00515752    -0.70900
O763        O  0.02350179  0.00201844  0.06857259    -0.59500
O764        O  0.00030459  0.95944230  0.48440063    -0.68000
O765        O  0.00322865  0.48598262  0.42009845    -0.67500
O766        O  0.01632232  0.55545838  0.02626615    -0.58800
O767        O  0.04976585  0.51822047  0.46248757    -0.71300
O768        O  0.96852751  0.52391933  0.48018731    -0.70000
Cu769      Cu  0.01297434  0.96577585  0.02157107     1.04600
Cu770      Cu  0.00887163  0.52260580  0.46948863     1.04300
C771        C  0.95948206  0.99687026  0.01078165     0.96300
C772        C  0.06128223  0.00903559  0.49667813     0.95400
C773        C  0.02584489  0.03354875  0.05737612     0.87500
C774        C  0.99661263  0.97141098  0.44173160     0.93800
O775        O  0.96993266  0.97928829  0.21481299    -0.69900
O776        O  0.05116183  0.98045257  0.23352092    -0.70900
O777        O  0.00786337  0.94856564  0.28188203    -0.59500
O778        O  0.01391601  0.01118074  0.16761868    -0.68000
O779        O  0.01148691  0.55785913  0.22527220    -0.67500
O780        O  0.01914310  0.48525716  0.32633747    -0.58800
O781        O  0.05530465  0.51737424  0.26283001    -0.71300
O782        O  0.97482728  0.52510123  0.28976081    -0.70000
Cu783      Cu  0.01078689  0.97831981  0.22267239     1.04600
Cu784      Cu  0.01546885  0.52278876  0.27806563     1.04300
C785        C  0.95549949  0.00222207  0.23533237     0.96300
C786        C  0.06243333  0.00301881  0.26077330     0.95400
C787        C  0.00537370  0.96245356  0.32355186     0.87500
C788        C  0.01313197  0.04371615  0.17239367     0.93800
C789        C  0.31175427  0.72830746  0.45968560     0.33000
C790        C  0.31238601  0.72919184  0.05926795     0.33000
C791        C  0.29949491  0.69712567  0.48493297    -0.03200
C792        C  0.34023472  0.73083555  0.48300299    -0.04000
C793        C  0.29652233  0.75820959  0.48299877    -0.03800
C794        C  0.30176253  0.69633673  0.03534521    -0.03200
C795        C  0.34059316  0.73343782  0.03648847    -0.04000
C796        C  0.29558637  0.75709539  0.03372726    -0.03900
C797        C  0.29083038  0.66580994  0.05052169    -0.29200
N798        N  0.28009895  0.64976163  0.51179102     0.17300
C799        C  0.28692282  0.66710070  0.47098847    -0.29200
H800        H  0.28293779  0.65854422  0.43411514     0.19200
C801        C  0.36679120  0.73981330  0.05260071    -0.28200
N802        N  0.38387296  0.73220642  0.50553862     0.16000
C803        C  0.36658652  0.73095543  0.46662528    -0.28200
C804        C  0.28282659  0.78688631  0.04744552    -0.28500
N805        N  0.27479613  0.80495310  0.50634413     0.16500
H806        H  0.28048439  0.79629514  0.08421457     0.19100
C807        C  0.28251249  0.78667706  0.46690977    -0.28500
H808        H  0.27879852  0.79403075  0.42945590     0.19100
H809        H  0.37282892  0.72961825  0.42905465     0.19100
H810        H  0.28713998  0.65808829  0.08767787     0.19200
H811        H  0.37346927  0.74272681  0.09007835     0.19100
C812        C  0.31067343  0.72876668  0.21009208     0.33000
C813        C  0.31114599  0.72763475  0.30895388     0.33000
C814        C  0.29503429  0.69902398  0.23340560    -0.03200
C815        C  0.33894037  0.72611773  0.23439362    -0.04000
C816        C  0.29840214  0.76034404  0.23486125    -0.03800
C817        C  0.29526144  0.69858821  0.28415299    -0.03200
C818        C  0.33918277  0.72536287  0.28500416    -0.04000
C819        C  0.29871781  0.75971915  0.28557376    -0.03900
C820        C  0.28294991  0.66868949  0.29856543    -0.29200
N821        N  0.27528594  0.65117831  0.25805700     0.17300
C822        C  0.28256177  0.66921167  0.21805447    -0.29200
H823        H  0.28012769  0.66051459  0.18086104     0.19200
C824        C  0.36603952  0.72321226  0.29997491    -0.28200
N825        N  0.38202186  0.72314478  0.25992993     0.16000
C826        C  0.36566696  0.72479529  0.21959627    -0.28200
C827        C  0.28718212  0.78979788  0.30135071    -0.28500
N828        N  0.27984120  0.80836215  0.26164252     0.16500
H829        H  0.28412385  0.79751302  0.33869947     0.19100
C830        C  0.28656242  0.79084524  0.22083850    -0.28500
H831        H  0.28288702  0.79953691  0.18394125     0.19100
H832        H  0.37259653  0.72494845  0.18238622     0.19100
H833        H  0.28091995  0.65954786  0.33551197     0.19200
H834        H  0.37349783  0.72245042  0.33716887     0.19100
C835        C  0.21032259  0.97632949  0.05569129     0.33000
C836        C  0.20622086  0.97864633  0.45716312     0.33000
C837        C  0.22635358  0.94749070  0.03140957    -0.03200
C838        C  0.18227500  0.97373112  0.03037752    -0.04000
C839        C  0.22556379  0.50960831  0.03576789    -0.03800
C840        C  0.21945459  0.94636346  0.47968908    -0.03200
C841        C  0.17846346  0.98062462  0.48301940    -0.04000
C842        C  0.22366594  0.51017423  0.48531672    -0.03900
C843        C  0.23061466  0.91586111  0.46379023    -0.29200
N844        N  0.23827845  0.89721371  0.50346333     0.17300
C845        C  0.23762806  0.91684494  0.04599141    -0.29200
H846        H  0.23915436  0.90725277  0.08286225     0.19200
C847        C  0.15108219  0.98440678  0.47065715    -0.28200
N848        N  0.13895686  0.47891416  0.51195628     0.16000
C849        C  0.15555279  0.96958505  0.04392758    -0.28200
C850        C  0.23549642  0.54051395  0.47115137    -0.28500
N851        N  0.24322469  0.55789602  0.51181757     0.16500
H852        H  0.23798408  0.54949758  0.43423349     0.19100
C853        C  0.23890177  0.53879029  0.05090700    -0.28500
H854        H  0.24313505  0.54647121  0.08807244     0.19100
H855        H  0.15081896  0.47662673  0.09030147     0.19100
H856        H  0.23281946  0.90773241  0.42646909     0.19200
H857        H  0.14654124  0.48062012  0.43417641     0.19100
C858        C  0.20710749  0.97884260  0.30565370     0.33000
C859        C  0.21001112  0.97725393  0.20674614     0.33000
C860        C  0.22031223  0.94665655  0.28376580    -0.03200
C861        C  0.17962081  0.98093359  0.27808485    -0.04000
C862        C  0.22685074  0.50736559  0.28513614    -0.03800
C863        C  0.22175906  0.94599573  0.23309946    -0.03200
C864        C  0.18131552  0.97983293  0.22756480    -0.04000
C865        C  0.22691752  0.50679089  0.23441011    -0.03900
C866        C  0.23437679  0.91597611  0.22012193    -0.29200
N867        N  0.24061403  0.89854485  0.26139066     0.17300
C868        C  0.23217073  0.91678623  0.30049587    -0.29200
H869        H  0.23475480  0.90905297  0.33802184     0.19200
C870        C  0.15522645  0.98085996  0.20888777    -0.28200
N871        N  0.14022152  0.49130011  0.25831430     0.16000
C872        C  0.15222744  0.98331918  0.28902903    -0.28200
C873        C  0.23824550  0.53711536  0.21911158    -0.28500
N874        N  0.24514718  0.55569615  0.25906380     0.16500
H875        H  0.23986814  0.54588966  0.18192610     0.19100
C876        C  0.23819885  0.53806047  0.29956825    -0.28500
H877        H  0.23980859  0.54770527  0.33641030     0.19100
H878        H  0.14964720  0.49196283  0.33559883     0.19100
H879        H  0.23897215  0.90757957  0.18359291     0.19200
H880        H  0.14884604  0.48933183  0.18095175     0.19100
C881        C  0.20528989  0.97948477  0.40340328    -0.10300
C882        C  0.20564782  0.97953274  0.35933506    -0.11800
C883        C  0.21043154  0.97589045  0.10926118    -0.10300
C884        C  0.21084106  0.97635629  0.15321246    -0.11800
C885        C  0.26434065  0.61799625  0.25787969    -0.10300
C886        C  0.25539546  0.58921661  0.25838941    -0.11800
C887        C  0.25441743  0.86707865  0.26290927    -0.10300
C888        C  0.26632217  0.84001826  0.26267374    -0.11800
C889        C  0.26698827  0.61778850  0.51258794    -0.10300
C890        C  0.25590065  0.59015024  0.51251338    -0.11800
C891        C  0.26151490  0.83687926  0.50455628    -0.10300
C892        C  0.25056784  0.86465517  0.50314714    -0.11800
C893        C  0.31127641  0.72745784  0.40624768    -0.10300
C894        C  0.31130848  0.72720438  0.36238058    -0.11800
C895        C  0.31168476  0.72963987  0.11274221    -0.10300
C896        C  0.31088522  0.72938875  0.15661015    -0.11800
C897        C  0.09356574  0.49042028  0.22536911    -0.13400
C898        C  0.11163133  0.49985536  0.26013785    -0.28600
H899        H  0.10040629  0.47615456  0.19389551     0.15600
H900        H  0.09980676  0.97033864  0.20900422     0.16200
C901        C  0.10961226  0.47899964  0.51482565    -0.13400
C902        C  0.09359266  0.49474216  0.48157963    -0.28600
H903        H  0.10109380  0.95595868  0.03691434     0.15600
H904        H  0.10275367  0.50819665  0.45133296     0.16200
C905        C  0.00586209  0.94167374  0.36788727    -0.13400
C906        C  0.98757592  0.94926951  0.40180531    -0.28600
H907        H  0.02628865  0.93430595  0.37987964     0.15600
H908        H  0.97770321  0.43062110  0.37478740     0.16200
C909        C  0.03371373  0.05728891  0.09622185    -0.13400
C910        C  0.01436441  0.06490269  0.12838699    -0.28600
H911        H  0.04499534  0.56873399  0.12426504     0.15600
H912        H  0.99436800  0.07226193  0.11423919     0.16200
C913        C  0.42674454  0.73469673  0.22561600    -0.13400
C914        C  0.41139147  0.72218755  0.26171885    -0.28600
H915        H  0.41710389  0.74590426  0.19361193     0.15600
H916        H  0.42128002  0.71373989  0.29526734     0.16200
C917        C  0.43065767  0.74496290  0.53286195    -0.13400
C918        C  0.41315629  0.73038735  0.50094043    -0.28600
H919        H  0.42285565  0.75823642  0.56449980     0.15600
H920        H  0.42002268  0.76066330  0.04986293     0.16200
C921        C  0.49774964  0.82204961  0.39149161    -0.13400
C922        C  0.48160407  0.81294908  0.35419974    -0.28600
H923        H  0.51632182  0.83602891  0.38337822     0.15600
H924        H  0.46179256  0.80276454  0.36431552     0.16200
C925        C  0.50969340  0.67889995  0.10494009    -0.13400
C926        C  0.52907127  0.68259795  0.13937806    -0.28600
H927        H  0.48913107  0.67357923  0.11740605     0.15600
H928        H  0.54975461  0.68672113  0.12659155     0.16200
C929        C  0.90925463  0.01848603  0.25887789    -0.13400
C930        C  0.92568824  0.00208867  0.22796842    -0.28600
H931        H  0.91790192  0.03073662  0.29108550     0.15600
H932        H  0.92136508  0.52544287  0.30414533     0.16200
C933        C  0.81011278  0.52094580  0.38663030    -0.10300
C934        C  0.81076341  0.52130748  0.34279817    -0.11800
C935        C  0.81120702  0.52047840  0.13690320    -0.10300
C936        C  0.81175525  0.51975084  0.09298397    -0.11800
C937        C  0.91371919  0.01736961  0.98715681    -0.13400
C938        C  0.92984539  0.00075066  0.01930252    -0.28600
H939        H  0.91838213  0.03983949  0.45799325     0.15600
H940        H  0.91957770  0.48955267  0.05197845     0.16200
C941        C  0.76607132  0.63292589  0.23958721    -0.10300
C942        C  0.75474251  0.66036987  0.23984118    -0.11800
C943        C  0.75518709  0.88063199  0.23975094    -0.10300
C944        C  0.76528369  0.90875309  0.23932471    -0.11800
C945        C  0.60723447  0.77523379  0.23496232    -0.13400
C946        C  0.59163729  0.76249275  0.27064392    -0.28600
H947        H  0.59751384  0.78418065  0.20153168     0.15600
H948        H  0.60120184  0.75077524  0.30234578     0.16200
C949        C  0.76766214  0.63285844  0.99171470    -0.10300
C950        C  0.75805729  0.66138632  0.99169422    -0.11800
C951        C  0.75396586  0.88533830  0.99109227    -0.10300
C952        C  0.76445115  0.91335226  0.99153517    -0.11800
C953        C  0.70791778  0.77052264  0.34260822    -0.10300
C954        C  0.70859172  0.77024983  0.38663332    -0.11800
C955        C  0.71011483  0.77181227  0.09240389    -0.10300
C956        C  0.70879271  0.77129287  0.13626640    -0.11800
C957        C  0.61215788  0.75426419  0.98264967    -0.13400
C958        C  0.59491447  0.76286523  0.01825974    -0.28600
H959        H  0.60406457  0.74340426  0.94900764     0.15600
H960        H  0.60260101  0.74755121  0.43918125     0.16200
C961        C  0.71196637  0.77179281  0.93994490     0.33000
C962        C  0.71229675  0.77041207  0.53934186     0.33000
C963        C  0.72414541  0.80376442  0.96450406    -0.03200
C964        C  0.68368362  0.76929525  0.96273646    -0.04000
C965        C  0.72754383  0.74245110  0.96488796    -0.03800
C966        C  0.72813384  0.79889891  0.51448096    -0.03200
C967        C  0.68378575  0.77402631  0.51665821    -0.04000
C968        C  0.72331130  0.73823801  0.51484326    -0.03900
C969        C  0.74183698  0.82775258  0.52926178    -0.29200
N970        N  0.74890118  0.84536530  0.48898477     0.17300
C971        C  0.73549624  0.83435078  0.95008613    -0.29200
H972        H  0.73867182  0.84276721  0.91308727     0.19200
C973        C  0.65768320  0.77734956  0.53342481    -0.28200
N974        N  0.64035163  0.77794591  0.49460462     0.16000
C975        C  0.65736117  0.76395480  0.94647639    -0.28200
C976        C  0.73470900  0.70784276  0.52970610    -0.28500
N977        N  0.74034797  0.68933120  0.48942767     0.16500
H978        H  0.73867960  0.69976995  0.56679363     0.19100
C979        C  0.73982086  0.71239005  0.95062763    -0.28500
H980        H  0.74228906  0.70343465  0.91366960     0.19100
H981        H  0.65070180  0.76119351  0.90897781     0.19100
H982        H  0.74524325  0.83620343  0.56635974     0.19200
H983        H  0.65158305  0.77837186  0.57104720     0.19100
C984        C  0.71275401  0.77072722  0.69012966     0.33000
C985        C  0.71155502  0.77040477  0.78898015     0.33000
C986        C  0.72801276  0.80013199  0.71531606    -0.03200
C987        C  0.68426858  0.77282738  0.71248932    -0.04000
C988        C  0.72503757  0.73901508  0.71473660    -0.03800
C989        C  0.72736155  0.79998185  0.76598855    -0.03200
C990        C  0.68357868  0.77252873  0.76312555    -0.04000
C991        C  0.72448328  0.73879067  0.76544277    -0.03900
C992        C  0.74011791  0.82937257  0.78192479    -0.29200
N993        N  0.74841768  0.84700595  0.74230657     0.17300
C994        C  0.74118112  0.82959153  0.70144550    -0.29200
H995        H  0.74434908  0.83836322  0.66459997     0.19200
C996        C  0.65647550  0.77331714  0.77608388    -0.28200
N997        N  0.64085579  0.77414208  0.73470635     0.16000
C998        C  0.65766509  0.77414174  0.69576998    -0.28200
C999        C  0.73610508  0.70842189  0.78062060    -0.28500
N1000       N  0.74354910  0.69064770  0.74046452     0.16500
H1001       H  0.73887837  0.69984314  0.81779523     0.19100
C1002       C  0.73692117  0.70890015  0.70010694    -0.28500
H1003       H  0.74045688  0.70078919  0.66306109     0.19100
H1004       H  0.65095124  0.77423807  0.65818575     0.19100
H1005       H  0.74230715  0.83793522  0.81921465     0.19200
H1006       H  0.64877148  0.77327177  0.81279357     0.19100
C1007       C  0.81132989  0.51938799  0.53909516     0.33000
C1008       C  0.81133512  0.52089745  0.94049945     0.33000
C1009       C  0.79608797  0.54966305  0.51559112    -0.03200
C1010       C  0.83928826  0.52076956  0.51449081    -0.04000
C1011       C  0.79706147  0.98908982  0.51826780    -0.03800
C1012       C  0.79820376  0.55194448  0.96507214    -0.03200
C1013       C  0.83965373  0.51932976  0.96485361    -0.04000
C1014       C  0.79744116  0.99298820  0.96722790    -0.03900
C1015       C  0.78612962  0.58223584  0.95070154    -0.29200
N1016       N  0.77919156  0.59989922  0.99124317     0.17300
C1017       C  0.78343740  0.57919423  0.53079325    -0.29200
H1018       H  0.78091599  0.58765948  0.56795655     0.19200
C1019       C  0.86751314  0.01987844  0.95126902    -0.28200
N1020       N  0.88442438  0.01797092  0.99064920     0.16000
C1021       C  0.86401601  0.02624651  0.53281480    -0.28200
C1022       C  0.78429905  0.96363436  0.95197324    -0.28500
N1023       N  0.77695774  0.94571859  0.99198885     0.16500
H1024       H  0.78107377  0.95538416  0.91475082     0.19100
C1025       C  0.78717709  0.95778558  0.53276230    -0.28500
H1026       H  0.78541483  0.94859097  0.56972945     0.19100
H1027       H  0.87132752  0.02719414  0.57007755     0.19100
H1028       H  0.78304937  0.59105995  0.91371491     0.19200
H1029       H  0.87409405  0.02052593  0.91385337     0.19100
C1030       C  0.81176452  0.51960438  0.78950221     0.33000
C1031       C  0.81223992  0.51896653  0.69048981     0.31400
C1032       C  0.79805237  0.55015515  0.76465566    -0.03200
C1033       C  0.84008580  0.51935539  0.76639844    -0.04000
C1034       C  0.79854433  0.99026019  0.76849797    -0.03800
C1035       C  0.79823909  0.55002384  0.71394166    -0.03200
C1036       C  0.84049274  0.51874472  0.71571638    -0.04000
C1037       C  0.79904283  0.98960649  0.71778183    -0.03900
C1038       C  0.78632136  0.58027500  0.69883938    -0.29200
N1039       N  0.77911124  0.59820694  0.73903301     0.17300
C1040       C  0.78617253  0.58022688  0.77936199    -0.29200
H1041       H  0.78330756  0.58871358  0.81644603     0.19200
C1042       C  0.86783011  0.02218058  0.70671943    -0.28200
N1043       N  0.88317502  0.02359407  0.74846880     0.16000
C1044       C  0.86612467  0.02436230  0.78694664    -0.28200
C1045       C  0.78830119  0.95866047  0.70313141    -0.28500
N1046       N  0.78140069  0.94087374  0.74350449     0.16500
H1047       H  0.78619950  0.94943016  0.66613715     0.19100
C1048       C  0.78754590  0.95970025  0.78363280    -0.28500
H1049       H  0.78473510  0.95145814  0.82081351     0.19100
H1050       H  0.87257273  0.02525433  0.82470124     0.19100
H1051       H  0.78354117  0.58889091  0.66170002     0.19200
H1052       H  0.87580277  0.02144728  0.67020966     0.19100
O1053       O  0.55419287  0.77971272  0.51057741    -0.69900
O1054       O  0.47480343  0.77005187  0.54352045    -0.70900
O1055       O  0.52499715  0.74130929  0.57748092    -0.59500
O1056       O  0.51033863  0.80991938  0.97700378    -0.68000
O1057       O  0.51727371  0.76896421  0.92253942    -0.67500
O1058       O  0.52153705  0.69750778  0.52625747    -0.58800
O1059       O  0.47485541  0.72821390  0.96058969    -0.71300
O1060       O  0.55580585  0.73620039  0.98199849    -0.70000
Cu1061     Cu  0.51486342  0.77650562  0.52864410     1.04600
Cu1062     Cu  0.51561151  0.73064986  0.96956754     1.04300
C1063       C  0.56490500  0.75981086  0.47922900     0.96300
C1064       C  0.45875409  0.74653880  0.98588859     0.95400
C1065       C  0.52720506  0.70941308  0.56839059     0.87500
C1066       C  0.51464357  0.80054777  0.93335229     0.93800
O1067       O  0.55276936  0.77831422  0.73115787    -0.69900
O1068       O  0.47138292  0.76846704  0.71487905    -0.70900
O1069       O  0.50603111  0.80970676  0.77444757    -0.59500
O1070       O  0.51747452  0.73766069  0.67321842    -0.68000
O1071       O  0.51708645  0.69577024  0.72769486    -0.67500
O1072       O  0.50624182  0.76768204  0.82871529    -0.58800
O1073       O  0.47145997  0.72724513  0.77047047    -0.71300
O1074       O  0.55278068  0.73687661  0.78639006    -0.70000
Cu1075     Cu  0.51199500  0.77498140  0.72144471     1.04600
Cu1076     Cu  0.51199735  0.73056238  0.78042559     1.04300
C1077       C  0.56565622  0.75877386  0.76088544     0.96300
C1078       C  0.45864729  0.74623742  0.73995190     0.95400
C1079       C  0.50403156  0.79940493  0.81824355     0.87500
C1080       C  0.51847279  0.70581940  0.68373799     0.93800
O1081       O  0.96873626  0.99822106  0.54910744    -0.69900
O1082       O  0.04921758  0.98818206  0.52510897    -0.70900
O1083       O  0.01693766  0.02669360  0.58949099    -0.59500
O1084       O  0.00242193  0.93193342  0.97022815    -0.68000
O1085       O  0.00517660  0.48363901  0.92522757    -0.67500
O1086       O  0.01414528  0.55663617  0.52346429    -0.58800
O1087       O  0.05115055  0.51680635  0.96577862    -0.71300
O1088       O  0.97009343  0.52144114  0.98511522    -0.70000
Cu1089     Cu  0.00902060  0.99172126  0.53897642     1.04600
Cu1090     Cu  0.01053389  0.52071756  0.97362556     1.04300
C1091       C  0.95494671  0.02009768  0.52451603     0.96300
C1092       C  0.06428508  0.97931977  0.97383440     0.95400
C1093       C  0.01687335  0.05896307  0.58242330     0.87500
C1094       C  0.99794648  0.94141235  0.92648763     0.93800
O1095       O  0.97312707  0.98724209  0.70482620    -0.69900
O1096       O  0.05180538  0.96959440  0.74008622    -0.70900
O1097       O  0.00106371  0.93992612  0.76567323    -0.59500
O1098       O  0.02440032  0.01618457  0.68068365    -0.68000
O1099       O  0.02215086  0.55221275  0.72324962    -0.67500
O1100       O  0.99795644  0.48808747  0.82693546    -0.58800
O1101       O  0.04955169  0.51232956  0.79465633    -0.71300
O1102       O  0.97067640  0.52694844  0.75601502    -0.70000
Cu1103     Cu  0.01265096  0.97704602  0.72071009     1.04600
Cu1104     Cu  0.00999716  0.52139372  0.77705716     1.04300
C1105       C  0.95904392  0.00764152  0.73079518     0.96300
C1106       C  0.06323125  0.98621212  0.77485087     0.95400
C1107       C  0.99654468  0.94618303  0.81034351     0.87500
C1108       C  0.02654536  0.04689601  0.69589440     0.93800
C1109       C  0.31327390  0.72805041  0.96033297     0.33000
C1110       C  0.31328863  0.72995929  0.55861418     0.33000
C1111       C  0.30218187  0.69572203  0.98464054    -0.03200
C1112       C  0.34108951  0.73269050  0.98580797    -0.04000
C1113       C  0.29606405  0.75659207  0.98300504    -0.03800
C1114       C  0.30024841  0.69787595  0.53560571    -0.03200
C1115       C  0.34130666  0.73177833  0.53364031    -0.04000
C1116       C  0.29724122  0.75924373  0.53374225    -0.03900
C1117       C  0.28806807  0.66812523  0.55145030    -0.29200
N1118       N  0.28467773  0.64698584  0.01044118     0.17300
C1119       C  0.29147285  0.66477415  0.97000520    -0.29200
H1120       H  0.28837516  0.65607636  0.93295663     0.19200
C1121       C  0.36873892  0.73281324  0.54689993    -0.28200
N1122       N  0.38315577  0.74247652  0.01326623     0.16000
C1123       C  0.36766558  0.73823823  0.97221652    -0.28200
C1124       C  0.28361180  0.78864493  0.54734552    -0.28500
N1125       N  0.27552399  0.80414027  0.00653493     0.16500
H1126       H  0.28091565  0.79793497  0.58407495     0.19100
C1127       C  0.28359116  0.78618845  0.96698572    -0.28500
H1128       H  0.28193501  0.79497887  0.92974598     0.19100
H1129       H  0.37493275  0.74017147  0.93531263     0.19100
H1130       H  0.28513072  0.66044047  0.58883754     0.19200
H1131       H  0.37698877  0.73270986  0.58360223     0.19100
C1132       C  0.31331350  0.72811941  0.71011677     0.33000
C1133       C  0.31299274  0.72744297  0.80923951     0.33000
C1134       C  0.29828061  0.69780822  0.73351749    -0.03200
C1135       C  0.34147435  0.72690193  0.73532856    -0.04000
C1136       C  0.29991369  0.75909966  0.73436839    -0.03800
C1137       C  0.29819351  0.69762264  0.78434865    -0.03200
C1138       C  0.34116786  0.72629789  0.78599188    -0.04000
C1139       C  0.29975252  0.75873224  0.78511934    -0.03900
C1140       C  0.28508138  0.66836385  0.79892930    -0.29200
N1141       N  0.27719542  0.65093916  0.75851604     0.17300
C1142       C  0.28505770  0.66844299  0.71836721    -0.29200
H1143       H  0.28190394  0.66004063  0.68120341     0.19200
C1144       C  0.36777687  0.72539665  0.80220812    -0.28200
N1145       N  0.38426217  0.72613728  0.76297491     0.16000
C1146       C  0.36848715  0.72698069  0.72180853    -0.28200
C1147       C  0.28771703  0.78866520  0.80014104    -0.28500
N1148       N  0.28074211  0.80690898  0.75994273     0.16500
H1149       H  0.28460135  0.79682747  0.83728679     0.19100
C1150       C  0.28802260  0.78932799  0.71958819    -0.28500
H1151       H  0.28520789  0.79812461  0.68252833     0.19100
H1152       H  0.37604993  0.72756224  0.68499308     0.19100
H1153       H  0.28201494  0.65996645  0.83598445     0.19200
H1154       H  0.37472226  0.72505745  0.83975509     0.19100
C1155       C  0.20865725  0.97680430  0.55610911     0.33000
C1156       C  0.21072331  0.97773047  0.95676783     0.33000
C1157       C  0.22063672  0.94565866  0.53037378    -0.03200
C1158       C  0.17995526  0.97926399  0.53364477    -0.04000
C1159       C  0.22428674  0.50946138  0.53604871    -0.03800
C1160       C  0.22654410  0.94811901  0.98065939    -0.03200
C1161       C  0.18248510  0.97470425  0.97974562    -0.04000
C1162       C  0.22459954  0.51020274  0.98497762    -0.03900
C1163       C  0.23803941  0.91780923  0.96550415    -0.29200
N1164       N  0.24477119  0.89924860  0.00559044     0.17300
C1165       C  0.23230364  0.91508021  0.54421793    -0.29200
H1166       H  0.23601746  0.90634520  0.58109030     0.19200
C1167       C  0.15584152  0.97174921  0.96359116    -0.28200
N1168       N  0.14017098  0.47844861  0.01357181     0.16000
C1169       C  0.15380513  0.98130366  0.55082888    -0.28200
C1170       C  0.23735656  0.53974070  0.97034042    -0.28500
N1171       N  0.24595178  0.55671942  0.01075146     0.16500
H1172       H  0.24014225  0.54832346  0.93330185     0.19100
C1173       C  0.23652547  0.53934597  0.55163950    -0.28500
H1174       H  0.24000009  0.54722458  0.58895794     0.19100
H1175       H  0.14922720  0.47669792  0.58883977     0.19100
H1176       H  0.23999588  0.90908518  0.92836653     0.19200
H1177       H  0.14710657  0.47967116  0.93556625     0.19100
C1178       C  0.20976965  0.97687570  0.80589225     0.33000
C1179       C  0.21025199  0.97580752  0.70699246     0.33000
C1180       C  0.22514761  0.94684360  0.78291347    -0.03200
C1181       C  0.18158599  0.97496817  0.78078022    -0.04000
C1182       C  0.22249626  0.51053552  0.78550342    -0.03800
C1183       C  0.22536882  0.94633318  0.73217342    -0.03200
C1184       C  0.18198496  0.97428551  0.73013316    -0.04000
C1185       C  0.22311732  0.50991932  0.73479498    -0.03900
C1186       C  0.23839587  0.91680991  0.71822909    -0.29200
N1187       N  0.24600966  0.89969160  0.75907767     0.17300
C1188       C  0.23810797  0.91757123  0.79878858    -0.29200
H1189       H  0.24084470  0.90933930  0.83610171     0.19200
C1190       C  0.15540439  0.97223858  0.71394035    -0.28200
N1191       N  0.13871774  0.47351715  0.75531055     0.16000
C1192       C  0.15453538  0.97370091  0.79427014    -0.28200
C1193       C  0.23494973  0.53998188  0.71981829    -0.28500
N1194       N  0.24138407  0.55862631  0.75995024     0.16500
H1195       H  0.23839018  0.54790102  0.68267966     0.19100
C1196       C  0.23394073  0.54110273  0.80029058    -0.28500
H1197       H  0.23642452  0.55008807  0.83733861     0.19100
H1198       H  0.14642729  0.47550531  0.83339330     0.19100
H1199       H  0.24137906  0.90789962  0.68138441     0.19200
H1200       H  0.14888197  0.47217896  0.67878502     0.19100
C1201       C  0.21052501  0.97804761  0.90327367    -0.10300
C1202       C  0.20990285  0.97756873  0.85937128    -0.11800
C1203       C  0.20979186  0.97586776  0.60958974    -0.10300
C1204       C  0.21028819  0.97546968  0.65349471    -0.11800
C1205       C  0.26432048  0.61888072  0.75868171    -0.10300
C1206       C  0.25359494  0.59108902  0.75948005    -0.11800
C1207       C  0.25833333  0.86736184  0.75992256    -0.10300
C1208       C  0.26868988  0.83939970  0.76010212    -0.11800
C1209       C  0.27159042  0.61513049  0.01072138    -0.10300
C1210       C  0.25985615  0.58803466  0.01089942    -0.11800
C1211       C  0.26440508  0.83719930  0.00556797    -0.10300
C1212       C  0.25525483  0.86586019  0.00531126    -0.11800
C1213       C  0.31350484  0.72753437  0.90677632    -0.10300
C1214       C  0.31317390  0.72729690  0.86282441    -0.11800
C1215       C  0.31377768  0.73008000  0.61235233    -0.10300
C1216       C  0.31362516  0.72901596  0.65638179    -0.11800
C1217       C  0.09277036  0.48543282  0.78430850    -0.13400
C1218       C  0.10942948  0.47126175  0.75133742    -0.28600
H1219       H  0.10133539  0.49855094  0.81580571     0.15600
H1220       H  0.10059223  0.96310302  0.71429929     0.16200
C1221       C  0.11100847  0.47782330  0.01686256    -0.13400
C1222       C  0.09494207  0.49381052  0.98417600    -0.28600
H1223       H  0.09812174  0.97374452  0.54859265     0.15600
H1224       H  0.10389823  0.50765544  0.95409097     0.16200
C1225       C  0.98832523  0.91729012  0.84171228    -0.13400
C1226       C  0.98916282  0.91516312  0.89074239    -0.28600
H1227       H  0.98207958  0.89420641  0.82247864     0.15600
H1228       H  0.02218323  0.41630198  0.88417702     0.16200
C1229       C  0.01910042  0.08175428  0.62509059    -0.13400
C1230       C  0.03620735  0.07278188  0.66137253    -0.28600
H1231       H  0.00071650  0.58069538  0.61909490     0.15600
H1232       H  0.05683374  0.06668470  0.64995683     0.16200
C1233       C  0.42885014  0.74285159  0.73350024    -0.13400
C1234       C  0.41355187  0.72661366  0.76640993    -0.28600
H1235       H  0.41914044  0.75567557  0.70280134     0.15600
H1236       H  0.42321594  0.71604973  0.79891864     0.16200
C1237       C  0.42906207  0.74167087  0.98028812    -0.13400
C1238       C  0.41187837  0.74997179  0.01614410    -0.28600
H1239       H  0.42151469  0.72850969  0.94803680     0.15600
H1240       H  0.42117676  0.71955700  0.46758861     0.16200
C1241       C  0.51700379  0.82558547  0.89390724    -0.13400
C1242       C  0.49837959  0.82348190  0.85794983    -0.28600
H1243       H  0.53807423  0.82890086  0.88278500     0.15600
H1244       H  0.47716184  0.82228761  0.86909249     0.16200
C1245       C  0.53703780  0.68718664  0.60779539    -0.13400
C1246       C  0.51963080  0.68090118  0.64374572    -0.28600
H1247       H  0.55758188  0.69435605  0.61941989     0.15600
H1248       H  0.49964988  0.67088228  0.63357405     0.16200
C1249       C  0.91248566  0.02416280  0.75393686    -0.13400
C1250       C  0.92945841  0.01156507  0.72027348    -0.28600
H1251       H  0.92092861  0.03238678  0.78879579     0.15600
H1252       H  0.92110254  0.49624631  0.68345561     0.16200
C1253       C  0.81128737  0.52102118  0.88695709    -0.10300
C1254       C  0.81150474  0.52031337  0.84304117    -0.11800
C1255       C  0.81231295  0.51880815  0.63680788    -0.10300
C1256       C  0.81197963  0.51894502  0.59278275    -0.11800
C1257       C  0.90903724  0.03112325  0.49146708    -0.13400
C1258       C  0.92503937  0.02062749  0.52870000    -0.28600
H1259       H  0.92273160  0.02820807  0.95466290     0.15600
H1260       H  0.91779933  0.49175384  0.54599607     0.16200
C1261       C  0.76678842  0.63059438  0.73935479    -0.10300
C1262       C  0.75608101  0.65838689  0.74025586    -0.11800
C1263       C  0.76038393  0.87957433  0.74326557    -0.10300
C1264       C  0.77023878  0.90784863  0.74365747    -0.11800
C1265       C  0.61144645  0.77448314  0.73113895    -0.13400
C1266       C  0.59569937  0.76092642  0.76594713    -0.28600
H1267       H  0.60194374  0.78389664  0.69776699     0.15600
H1268       H  0.60518368  0.74900212  0.79757288     0.16200
C1269       C  0.76289482  0.62905778  0.49051773    -0.10300
C1270       C  0.75237968  0.65687944  0.48976465    -0.11800
C1271       C  0.76067942  0.87796624  0.48965877    -0.10300
C1272       C  0.77011502  0.90638335  0.49116595    -0.11800
C1273       C  0.71131931  0.77062506  0.84249245    -0.10300
C1274       C  0.71184135  0.77131025  0.88641220    -0.11800
C1275       C  0.71328651  0.77058017  0.59281177    -0.10300
C1276       C  0.71334573  0.77075400  0.63669655    -0.11800
C1277       C  0.61122243  0.77973340  0.49896903    -0.13400
C1278       C  0.59433952  0.76238083  0.46901852    -0.28600
H1279       H  0.60303262  0.79234329  0.53090353     0.15600
H1280       H  0.60245808  0.77618038  0.05038714     0.16200
loop_ 
_geom_bond_atom_site_label_1 
_geom_bond_atom_site_label_2 
_geom_bond_distance 
_geom_bond_site_symmetry_2 
_ccdc_geom_bond_type 
C1            C3   1.536       .  S
C1            C5   1.535       .  S
C1            C4   1.541       .  S
C1          C314   1.474       .  S
C2            C6   1.530       .  S
C2            C8   1.531       .  S
C2            C7   1.532       .  S
C2          C315   1.474       .  S
C3           C11   1.377       .  A
C3          C326   1.395       .  A
C4           C15   1.383       .  A
C4          C327   1.395       .  A
C5           C19   1.377       .  A
C5          C328   1.394       .  A
C6            C9   1.376       .  A
C6          C323   1.394   1_554  A
C7           C13   1.371       .  A
C7          C324   1.394   1_554  A
C8           C16   1.376       .  A
C8          C325   1.394   1_554  A
C9           N10   1.355   1_554  A
C9           H22   1.083       .  S
N10         C331   1.359       .  A
N10         C311   1.405       .  S
C11         N330   1.357       .  A
C11          H12   1.082       .  S
C13          N14   1.357   1_554  A
C13          H23   1.082       .  S
N14         C335   1.363       .  A
N14         C317   1.440       .  S
C15         N334   1.363       .  A
C15          H21   1.084       .  S
C16          N17   1.355   1_554  A
C16          H18   1.082       .  S
N17         C339   1.359       .  A
N17         C310   1.406       .  S
C19         N337   1.357       .  A
C19          H20   1.082       .  S
C24          C26   1.529       .  S
C24          C28   1.530       .  S
C24          C27   1.528       .  S
C24         C316   1.474       .  S
C25          C29   1.535       .  S
C25          C31   1.533       .  S
C25          C30   1.529       .  S
C25         C313   1.475       .  S
C26          C34   1.373       .  A
C26          C29   1.397       .  A
C27          C38   1.371       .  A
C27          C30   1.392       .  A
C28          C42   1.373       .  A
C28          C31   1.397       .  A
C29          C32   1.376       .  A
C30          C36   1.373       .  A
C31          C39   1.375       .  A
C32          N33   1.357       .  A
C32          H45   1.082       .  S
N33          C34   1.354       .  A
N33         C303   1.399       .  S
C34          H35   1.083       .  S
C36          N37   1.359       .  A
C36          H46   1.083       .  S
N37          C38   1.356       .  A
N37         C305   1.432       .  S
C38          H44   1.081       .  S
C39          N40   1.356       .  A
C39          H41   1.083       .  S
N40          C42   1.354       .  A
N40         C302   1.398       .  S
C42          H43   1.082       .  S
C47          C49   1.542       .  S
C47          C50   1.539       .  S
C47         C691   1.535   1_545  S
C47         C296   1.475       .  S
C48          C52   1.529       .  S
C48          C53   1.534       .  S
C48         C694   1.529   1_545  S
C48         C293   1.474       .  S
C49          C57   1.382       .  A
C49         C372   1.395   1_554  A
C50         C701   1.382       .  A
C50         C373   1.394   1_554  A
C51         C687   1.537       .  S
C51          C65   1.380       .  A
C51         C374   1.394   1_554  A
C52          C55   1.373       .  A
C52         C369   1.397       .  A
C53         C370   1.393       .  A
C53         C699   1.375       .  A
C54         C688   1.530       .  S
C54          C62   1.374       .  A
C54         C371   1.396       .  A
C55          N56   1.354       .  A
C55          H68   1.083       .  S
N56         C377   1.357       .  A
N56         C629   1.400       .  S
C57         N376   1.360   1_554  A
C57          H58   1.082       .  S
C59         C693   1.370       .  A
C59          N60   1.355       .  A
C59          H69   1.082       .  S
N60         C381   1.361       .  A
N60         C617   1.433       .  S
C61         C690   1.383       .  A
C61         N380   1.363   1_554  A
C61          H67   1.082       .  S
C62          N63   1.355       .  A
C62          H64   1.082       .  S
N63         C385   1.357       .  A
N63         C632   1.400       .  S
C65         N383   1.359   1_554  A
C65          H66   1.082       .  S
C70          C72   1.528       .  S
C70          C73   1.526       .  S
C70         C714   1.532   1_545  S
C70         C294   1.474       .  S
C71          C75   1.534       .  S
C71          C76   1.532       .  S
C71         C717   1.535   1_545  S
C71         C295   1.475       .  S
C72          C80   1.373       .  A
C72          C75   1.396       .  A
C73          C76   1.392       .  A
C73         C724   1.369       .  A
C74         C710   1.531       .  S
C74          C88   1.374       .  A
C74          C77   1.394       .  A
C75          C78   1.376       .  A
C76         C722   1.376       .  A
C77         C711   1.531       .  S
C77          C85   1.376       .  A
C78          N79   1.356       .  A
C78          H91   1.082       .  S
N79          C80   1.354       .  A
N79         C301   1.398       .  S
C80          H81   1.083       .  S
C82         C716   1.373       .  A
C82          N83   1.357       .  A
C82          H92   1.083       .  S
N83          C84   1.362       .  A
N83         C289   1.438       .  S
C84         C713   1.381       .  A
C84          H90   1.082       .  S
C85          N86   1.356       .  A
C85          H87   1.083       .  S
N86          C88   1.355       .  A
N86         C304   1.399       .  S
C88          H89   1.082       .  S
O93        Cu101   2.011       .  S
O93         C103   1.279   1_554  A
O94        Cu101   2.020       .  S
O94         C424   1.278       .  A
O95        Cu101   1.981       .  S
O95         C105   1.276       .  A
O96        Cu421   2.007       .  S
O96         C106   1.274       .  A
O97        Cu102   1.986       .  S
O97         C106   1.277       .  A
O98        Cu422   2.010   1_554  S
O98         C105   1.275       .  A
O99        Cu102   2.011       .  S
O99         C104   1.279       .  A
O100       Cu102   2.021       .  S
O100        C423   1.278       .  A
Cu101       O416   2.004   1_554  S
Cu101      Cu422   2.377   1_554  S
Cu102       O418   2.006       .  S
Cu102      Cu421   2.376       .  S
C103        O420   1.278       .  A
C103        C318   1.481       .  S
C104        O414   1.279       .  A
C104        C277   1.483       .  S
C105        C285   1.462       .  S
C106        C281   1.464       .  S
O107       Cu115   1.995       .  S
O107        C117   1.277       .  A
O108       Cu115   2.012       .  S
O108        C118   1.277       .  A
O109       Cu115   2.011       .  S
O109        C119   1.274       .  A
O110       Cu115   1.990       .  S
O110        C120   1.278       .  A
O111       Cu116   2.004       .  S
O111        C120   1.274       .  A
O112       Cu116   1.983       .  S
O112        C119   1.277       .  A
O113       Cu116   2.002       .  S
O113        C118   1.278       .  A
O114       Cu116   2.010       .  S
O114        C117   1.277       .  A
Cu115      Cu116   2.376       .  S
C117        C306   1.469       .  S
C118        C273   1.475       .  S
C119        C282   1.469       .  S
C120        C286   1.468       .  S
O121       Cu129   2.020   1_655  S
O121        C131   1.278       .  A
O122       Cu129   1.993       .  S
O122        C452   1.277   1_554  A
O123       Cu129   1.991       .  S
O123        C133   1.278       .  A
O124       Cu449   2.003       .  S
O124        C134   1.273       .  A
O125       Cu130   1.994   1_655  S
O125        C774   1.278   1_545  A
O126       Cu450   2.015   1_554  S
O126        C773   1.276       .  A
O127       Cu130   2.024       .  S
O127        C772   1.279       .  A
O128       Cu130   2.000   1_655  S
O128       C1091   1.277       .  A
Cu129       O444   2.010   1_554  S
Cu129     Cu1090   2.377   1_554  S
Cu130       O446   2.017       .  S
Cu130     Cu1089   2.374   1_545  S
C131       O1088   1.279   1_554  A
C131        C298   1.480       .  S
C132        O442   1.278       .  A
C132        O767   1.278       .  A
C132        C902   1.479       .  S
C133        O766   1.273       .  A
C133        C269   1.464       .  S
C134        O765   1.277       .  A
C134        C266   1.464   1_455  S
O135       Cu143   2.006   1_655  S
O135        C145   1.279       .  A
O136       Cu143   2.019       .  S
O136        C146   1.278       .  A
O137       Cu143   2.004       .  S
O137        C147   1.274       .  A
O138       Cu143   1.981       .  S
O138        C148   1.276       .  A
O139       Cu144   2.007       .  S
O139        C788   1.274       .  A
O140       Cu144   1.987   1_565  S
O140        C787   1.278       .  A
O141       Cu144   2.015       .  S
O141        C786   1.278       .  A
O142       Cu144   2.000   1_655  S
O142        C785   1.278       .  A
Cu143      Cu784   2.377       .  S
Cu144      Cu783   2.377   1_545  S
C145        O782   1.278       .  A
C145        C290   1.479       .  S
C146        O781   1.279       .  A
C146        C897   1.479       .  S
C147        O780   1.277       .  A
C147        C265   1.463       .  S
C148        O779   1.273       .  A
C148        C270   1.462       .  S
C149        C151   1.529       .  S
C149        C153   1.533       .  S
C149        C152   1.528       .  S
C149        C253   1.468       .  S
C150        C154   1.538       .  S
C150        C156   1.537       .  S
C150        C155   1.537       .  S
C150        C255   1.478       .  S
C151        C159   1.377       .  A
C151        C474   1.394       .  A
C152        C163   1.370       .  A
C152        C475   1.392       .  A
C153        C167   1.378       .  A
C153        C476   1.394       .  A
C154        C157   1.379       .  A
C154        C471   1.396   1_554  A
C155        C161   1.381       .  A
C155        C472   1.394   1_554  A
C156        C164   1.377       .  A
C156        C473   1.397   1_554  A
C157        N478   1.358       .  A
C157        H170   1.082       .  S
N158        C159   1.356       .  A
N158        C477   1.359       .  A
N158        C249   1.406       .  S
C159        H160   1.083       .  S
C161        N482   1.362       .  A
C161        H171   1.083       .  S
N162        C163   1.355       .  A
N162        C481   1.364       .  A
N162        C278   1.440       .  S
C163        H169   1.082       .  S
C164        N485   1.357       .  A
C164        H166   1.082       .  S
N165        C167   1.357       .  A
N165        C484   1.357       .  A
N165        C251   1.404       .  S
C167        H168   1.082       .  S
C172        C174   1.540       .  S
C172        C176   1.536       .  S
C172        C175   1.539       .  S
C172        C256   1.477       .  S
C173        C177   1.528       .  S
C173        C179   1.530       .  S
C173        C178   1.529       .  S
C173        C254   1.468       .  S
C174        C182   1.380       .  A
C174        C177   1.395       .  A
C175        C186   1.380       .  A
C175        C178   1.394       .  A
C176        C190   1.379       .  A
C176        C179   1.394       .  A
C177        C180   1.375       .  A
C178        C184   1.372       .  A
C179        C187   1.376       .  A
C180        N181   1.355       .  A
C180        H193   1.083       .  S
N181        C182   1.359       .  A
N181        C245   1.404       .  S
C182        H183   1.082       .  S
C184        N185   1.356       .  A
C184        H194   1.082       .  S
N185        C186   1.363       .  A
N185        C274   1.437       .  S
C186        H192   1.083       .  S
C187        N188   1.356       .  A
C187        H189   1.082       .  S
N188        C190   1.358       .  A
N188        C248   1.405       .  S
C190        H191   1.082       .  S
C195        C197   1.530       .  S
C195        C198   1.526       .  S
C195        C839   1.532       .  S
C195        C243   1.471       .  S
C196        C200   1.536       .  S
C196        C201   1.537       .  S
C196        C842   1.535       .  S
C196        C241   1.474       .  S
C197        C205   1.374       .  A
C197        C520   1.395   1_554  A
C198        C209   1.370       .  A
C198        C521   1.392   1_554  A
C199        C835   1.532   1_545  S
C199        C213   1.376       .  A
C199        C522   1.395   1_554  A
C200        C203   1.379       .  A
C200        C517   1.394       .  A
C201        C207   1.380       .  A
C201        C518   1.394       .  A
C202        C836   1.539   1_545  S
C202        C210   1.381       .  A
C202        C519   1.395       .  A
C203        N204   1.357       .  A
C203        H216   1.082       .  S
N204        C525   1.357       .  A
N204        C252   1.404       .  S
C205        N524   1.355       .  A
C205        H206   1.083       .  S
C207        N848   1.363       .  A
C207        H857   1.082       .  S
N208        C847   1.365       .  A
N208       C1169   1.355       .  A
N208        C261   1.440       .  S
C209       N1168   1.354       .  A
C209        H855   1.082       .  S
C210        N211   1.359       .  A
C210        H212   1.082       .  S
N211        C533   1.356       .  A
N211        C250   1.406       .  S
C213        N531   1.355       .  A
C213        H214   1.082       .  S
H215        C849   1.082       .  S
H217        C847   1.082       .  S
C218        C220   1.537       .  S
C218        C221   1.532       .  S
C218        C862   1.533       .  S
C218        C242   1.474       .  S
C219        C223   1.533       .  S
C219        C224   1.537       .  S
C219        C865   1.532       .  S
C219        C244   1.471       .  S
C220        C228   1.380       .  A
C220        C223   1.395       .  A
C221        C232   1.373       .  A
C221        C224   1.393       .  A
C222        C858   1.537   1_545  S
C222        C236   1.378       .  A
C222        C225   1.397       .  A
C223        C226   1.377       .  A
C224        C230   1.382       .  A
C225        C859   1.533   1_545  S
C225        C233   1.376       .  A
C226        N227   1.356       .  A
C226        H239   1.083       .  S
N227        C228   1.358       .  A
N227        C247   1.405       .  S
C228        H229   1.082       .  S
C230        N871   1.363       .  A
C230        H880   1.082       .  S
N231        C870   1.354       .  A
N231        C872   1.362       .  A
N231        C258   1.434       .  S
C232        N871   1.357       .  A
C232        H878   1.083       .  S
C233        N234   1.356       .  A
C233        H235   1.082       .  S
N234        C236   1.358       .  A
N234        C246   1.404       .  S
C236        H237   1.083       .  S
H238        C872   1.081       .  S
H240        C870   1.081       .  S
C241        C242   1.209       .  T
C243        C244   1.207       .  T
C245        C246   1.208       .  T
C247        C248   1.209       .  T
C249        C250   1.210       .  T
C251        C252   1.208       .  T
C253        C254   1.205       .  T
C255        C256   1.211       .  T
C257        C786   1.474       .  S
C257        C258   1.342   1_545  D
C257        H259   1.086       .  S
C258        H900   1.087       .  S
H260        C898   1.087       .  S
C261        C262   1.345   1_565  D
C261       H1223   1.087       .  S
C262        C772   1.484       .  S
C262        H264   1.086       .  S
H263       C1221   1.087       .  S
C265        C266   1.337   1_455  D
C265        H267   1.087       .  S
C266        H908   1.087       .  S
H268        C906   1.088       .  S
C269        C270   1.337       .  D
C269        H911   1.088       .  S
C270        H272   1.087   1_455  S
H271        C909   1.088       .  S
C273        C274   1.343       .  D
C273        H275   1.085       .  S
C274        H276   1.087       .  S
C277        C278   1.345       .  D
C277        H279   1.086       .  S
C278        H600   1.087       .  S
H280        C598   1.086   1_556  S
C281        C282   1.339       .  D
C281        H283   1.088       .  S
C282        H284   1.087       .  S
C285        C286   1.338       .  D
C285        H287   1.087       .  S
C286        H288   1.087       .  S
C289        C290   1.345       .  D
C289        H291   1.087       .  S
C290        H932   1.085       .  S
H292        C930   1.086   1_565  S
C293        C294   1.209       .  T
C295        C296   1.210       .  T
C297        N380   1.440       .  S
C297        C298   1.345   1_556  D
C297        H619   1.087       .  S
C298        H940   1.086       .  S
H299        C617   1.087       .  S
H300        C938   1.086   1_565  S
C301        C302   1.203       .  T
C303        C304   1.204       .  T
C305        C306   1.342       .  D
C305        H307   1.087       .  S
C306        H308   1.086       .  S
C309        N376   1.405       .  S
C309        C310   1.209       .  T
C311        C312   1.209       .  T
C312        N383   1.405       .  S
C313        C314   1.209       .  T
C315        C316   1.209       .  T
C317        C318   1.345       .  D
C317        H319   1.087   1_556  S
C318        H640   1.086       .  S
H320        C638   1.085       .  S
C321        C323   1.540       .  S
C321        C325   1.538       .  S
C321        C324   1.540       .  S
C321        C634   1.474       .  S
C322        C326   1.527       .  S
C322        C328   1.527       .  S
C322        C327   1.528       .  S
C322        C635   1.469       .  S
C323        C331   1.381       .  A
C324        C335   1.384       .  A
C325        C339   1.381       .  A
C326        C329   1.374       .  A
C327        C333   1.368       .  A
C328        C336   1.374       .  A
C329        N330   1.355       .  A
C329        H342   1.083       .  S
N330        C631   1.400       .  S
C331        H332   1.082       .  S
C333        N334   1.354       .  A
C333        H343   1.087       .  S
N334        C637   1.437       .  S
C335        H341   1.082       .  S
C336        N337   1.354       .  A
C336        H338   1.082       .  S
N337        C630   1.400       .  S
C339        H340   1.083       .  S
C344        C346   1.529       .  S
C344        C348   1.534       .  S
C344        C347   1.530       .  S
C344        C636   1.469       .  S
C345        C349   1.538       .  S
C345        C351   1.536       .  S
C345        C350   1.533       .  S
C345        C633   1.474       .  S
C346        C354   1.376       .  A
C346        C349   1.394       .  A
C347        C358   1.372       .  A
C347        C350   1.393       .  A
C348        C362   1.377       .  A
C348        C351   1.396       .  A
C349        C352   1.379       .  A
C350        C356   1.376       .  A
C351        C359   1.378       .  A
C352        N353   1.358       .  A
C352        H365   1.082       .  S
N353        C354   1.356       .  A
N353        C623   1.404       .  S
C354        H355   1.083       .  S
C356        N357   1.361       .  A
C356        H366   1.084       .  S
N357        C358   1.356       .  A
N357        C625   1.436       .  S
C358        H364   1.087       .  S
C359        N360   1.358       .  A
C359        H361   1.082       .  S
N360        C362   1.357       .  A
N360        C622   1.404       .  S
C362        H363   1.082       .  S
C367        C369   1.536       .  S
C367       C1011   1.533   1_545  S
C367        C370   1.527       .  S
C367        C616   1.473       .  S
C368        C372   1.528       .  S
C368       C1014   1.531   1_545  S
C368        C373   1.531       .  S
C368        C613   1.471       .  S
C369        C377   1.377       .  A
C370       C1021   1.371       .  A
C371       C1007   1.535       .  S
C371        C385   1.376       .  A
C372        C375   1.375       .  A
C373       C1019   1.371       .  A
C374       C1008   1.532       .  S
C374        C382   1.377       .  A
C375        N376   1.355       .  A
C375        H388   1.083       .  S
C377        H378   1.082       .  S
C379       C1013   1.373       .  A
C379        N380   1.357       .  A
C379        H389   1.082       .  S
C381       C1010   1.377       .  A
C381        H387   1.083       .  S
C382        N383   1.356       .  A
C382        H384   1.082       .  S
C385        H386   1.082       .  S
C390        C392   1.531       .  S
C390       C1034   1.532   1_545  S
C390        C393   1.529       .  S
C390        C614   1.471       .  S
C391        C395   1.536       .  S
C391       C1037   1.534   1_545  S
C391        C396   1.539       .  S
C391        C615   1.472       .  S
C392        C400   1.377       .  A
C392        C395   1.394       .  A
C393       C1044   1.370       .  A
C393        C396   1.393       .  A
C394       C1030   1.533       .  S
C394        C408   1.377       .  A
C394        C397   1.395       .  A
C395        C398   1.378       .  A
C396       C1042   1.383       .  A
C397       C1031   1.537       .  S
C397        C405   1.379       .  A
C398        N399   1.357       .  A
C398        H411   1.082       .  S
N399        C400   1.356       .  A
N399        C621   1.404       .  S
C400        H401   1.082       .  S
C402       C1036   1.382       .  A
C402        N403   1.362       .  A
C402        H412   1.083       .  S
N403        C404   1.358       .  A
N403        C609   1.440       .  S
C404       C1033   1.372       .  A
C404        H410   1.082       .  S
C405        N406   1.358       .  A
C405        H407   1.082       .  S
N406        C408   1.357       .  A
N406        C624   1.405       .  S
C408        H409   1.082       .  S
O413       Cu421   2.008       .  S
O413        C423   1.279       .  A
O414       Cu421   2.025       .  S
O415       Cu421   1.990       .  S
O415        C425   1.277       .  A
O416        C426   1.274       .  A
O417       Cu422   1.990       .  S
O417        C426   1.277       .  A
O418        C425   1.274       .  A
O419       Cu422   2.006       .  S
O419        C424   1.278   1_556  A
O420       Cu422   2.021       .  S
C423        C638   1.480       .  S
C424        C597   1.478       .  S
C425        C605   1.465       .  S
C426        C601   1.463       .  S
O427       Cu435   2.001       .  S
O427        C437   1.278       .  A
O428       Cu435   2.012       .  S
O428        C438   1.278       .  A
O429       Cu435   2.004       .  S
O429        C439   1.273       .  A
O430       Cu435   1.980       .  S
O430        C440   1.277       .  A
O431       Cu436   2.009       .  S
O431        C440   1.274       .  A
O432       Cu436   1.987       .  S
O432        C439   1.278       .  A
O433       Cu436   2.002       .  S
O433        C438   1.278       .  A
O434       Cu436   2.010       .  S
O434        C437   1.277       .  A
Cu435      Cu436   2.377       .  S
C437        C626   1.472       .  S
C438        C593   1.474       .  S
C439        C602   1.467       .  S
C440        C606   1.468       .  S
O441       Cu449   2.011   1_655  S
O441        C451   1.277       .  A
O442       Cu449   2.008       .  S
O443       Cu449   1.980       .  S
O443        C453   1.277       .  A
O444        C454   1.275       .  A
O445       Cu450   2.003   1_565  S
O445       C1094   1.274   1_455  A
O446       C1093   1.275       .  A
O447       Cu450   2.012       .  S
O447       C1092   1.277   1_545  A
O448       Cu450   2.007   1_655  S
O448        C771   1.279   1_546  A
Cu449      Cu770   2.377       .  S
Cu450      Cu769   2.373   1_546  S
C451        O768   1.278       .  A
C451        C618   1.473       .  S
C452       O1087   1.276       .  A
C452       C1222   1.468       .  S
C453       O1086   1.274       .  A
C453        C589   1.466       .  S
C454       O1085   1.277       .  A
C454        C586   1.469       .  S
O455       Cu463   2.019   1_655  S
O455        C465   1.278       .  A
O456       Cu463   2.005       .  S
O456        C466   1.278       .  A
O457       Cu463   2.013   1_655  S
O457        C467   1.275       .  A
O458       Cu463   1.993       .  S
O458        C468   1.278       .  A
O459       Cu464   2.022       .  S
O459       C1108   1.276       .  A
O460       Cu464   2.006   1_665  S
O460       C1107   1.275       .  A
O461       Cu464   2.018       .  S
O461       C1106   1.278   1_545  A
O462       Cu464   2.013   1_655  S
O462       C1105   1.279       .  A
Cu463     Cu1104   2.376       .  S
Cu464     Cu1103   2.370   1_545  S
C465       O1102   1.279       .  A
C465        C610   1.481       .  S
C466       O1101   1.278       .  A
C466       C1217   1.477       .  S
C467       O1100   1.276       .  A
C467        C585   1.465       .  S
C468       O1099   1.273       .  A
C468        C590   1.464       .  S
C469        C471   1.529       .  S
C469        C473   1.530       .  S
C469        C472   1.530       .  S
C469        C573   1.475       .  S
C470        C474   1.540       .  S
C470        C476   1.536       .  S
C470        C475   1.541       .  S
C470        C575   1.470       .  S
C471        C479   1.374       .  A
C472        C483   1.370       .  A
C473        C487   1.375       .  A
C474        C477   1.381       .  A
C475        C481   1.386       .  A
C476        C484   1.379       .  A
C477        H490   1.082       .  S
N478        C479   1.355   1_554  A
N478        C569   1.402       .  S
C479        H480   1.083       .  S
C481        H491   1.082       .  S
N482        C483   1.357   1_554  A
N482        C598   1.439       .  S
C483        H489   1.081       .  S
C484        H486   1.083       .  S
N485        C487   1.355   1_554  A
N485        C571   1.401       .  S
C487        H488   1.082       .  S
C492        C494   1.535       .  S
C492        C496   1.534       .  S
C492        C495   1.532       .  S
C492        C576   1.471       .  S
C493        C497   1.530       .  S
C493        C499   1.532       .  S
C493        C498   1.532       .  S
C493        C574   1.474       .  S
C494        C502   1.377       .  A
C494        C497   1.396       .  A
C495        C506   1.376       .  A
C495        C498   1.392       .  A
C496        C510   1.378       .  A
C496        C499   1.396       .  A
C497        C500   1.374       .  A
C498        C504   1.373       .  A
C499        C507   1.374       .  A
C500        N501   1.355       .  A
C500        H513   1.083       .  S
N501        C502   1.357       .  A
N501        C565   1.400       .  S
C502        H503   1.082       .  S
C504        N505   1.357       .  A
C504        H514   1.081       .  S
N505        C506   1.360       .  A
N505        C594   1.436       .  S
C506        H512   1.084       .  S
C507        N508   1.355       .  A
C507        H509   1.082       .  S
N508        C510   1.358       .  A
N508        C568   1.402       .  S
C510        H511   1.083       .  S
C515        C517   1.532       .  S
C515       C1159   1.534       .  S
C515        C518   1.532       .  S
C515        C563   1.473       .  S
C516        C520   1.534       .  S
C516       C1162   1.533       .  S
C516        C521   1.531       .  S
C516        C561   1.473       .  S
C517        C525   1.377       .  A
C518        C529   1.373       .  A
C519       C1155   1.532   1_545  S
C519        C533   1.377       .  A
C520        C523   1.376       .  A
C521        C527   1.375       .  A
C522       C1156   1.535   1_545  S
C522        C530   1.378       .  A
C523        N524   1.356   1_556  A
C523        H536   1.082       .  S
N524        C572   1.400       .  S
C525        H526   1.083       .  S
C527       N1168   1.360   1_556  A
C527       H1177   1.083       .  S
N528       C1167   1.360   1_554  A
N528        C849   1.359       .  A
N528        C581   1.437       .  S
C529        N848   1.357       .  A
C529       H1175   1.082       .  S
C530        N531   1.358   1_556  A
C530        H532   1.082       .  S
N531        C570   1.403       .  S
C533        H534   1.082       .  S
H535       C1169   1.082       .  S
H537       C1167   1.082       .  S
C538        C540   1.537       .  S
C538       C1182   1.535       .  S
C538        C541   1.535       .  S
C538        C562   1.473       .  S
C539        C543   1.528       .  S
C539       C1185   1.531       .  S
C539        C544   1.533       .  S
C539        C564   1.473       .  S
C540        C548   1.379       .  A
C540        C543   1.395       .  A
C541        C552   1.379       .  A
C541        C544   1.393       .  A
C542       C1178   1.531   1_545  S
C542        C556   1.375       .  A
C542        C545   1.394       .  A
C543        C546   1.373       .  A
C544        C550   1.373       .  A
C545       C1179   1.530   1_545  S
C545        C553   1.375       .  A
C546        N547   1.354       .  A
C546        H559   1.083       .  S
N547        C548   1.358       .  A
N547        C567   1.402       .  S
C548        H549   1.082       .  S
C550       N1191   1.358       .  A
C550       H1200   1.082       .  S
N551       C1190   1.357       .  A
N551       C1192   1.363       .  A
N551        C578   1.439       .  S
C552       N1191   1.361       .  A
C552       H1198   1.083       .  S
C553        N554   1.355       .  A
C553        H555   1.082       .  S
N554        C556   1.356       .  A
N554        C566   1.400       .  S
C556        H557   1.083       .  S
H558       C1192   1.082       .  S
H560       C1190   1.082       .  S
C561        C562   1.208       .  T
C563        C564   1.208       .  T
C565        C566   1.205       .  T
C567        C568   1.206       .  T
C569        C570   1.207       .  T
C571        C572   1.205       .  T
C573        C574   1.209       .  T
C575        C576   1.207       .  T
C577       C1106   1.477       .  S
C577        C578   1.345       .  D
C577        H579   1.085       .  S
C578       H1220   1.087       .  S
H580       C1218   1.087       .  S
C581        C582   1.345   1_554  D
C581        H903   1.087       .  S
C582       C1092   1.475       .  S
C582        H584   1.086       .  S
H583        C901   1.087       .  S
C585        C586   1.338   1_655  D
C585        H587   1.088       .  S
C586       H1228   1.087       .  S
H588       C1226   1.087       .  S
C589        C590   1.336       .  D
C589       H1231   1.087       .  S
C590        H592   1.088       .  S
H591       C1229   1.086   1_655  S
C593        C594   1.344       .  D
C593        H595   1.084       .  S
C594        H596   1.086       .  S
C597        C598   1.345       .  D
C597        H599   1.084       .  S
C601        C602   1.337       .  D
C601        H603   1.088       .  S
C602        H604   1.087       .  S
C605        C606   1.338       .  D
C605        H607   1.088       .  S
C606        H608   1.086       .  S
C609        C610   1.345       .  D
C609        H611   1.087       .  S
C610       H1252   1.086       .  S
H612       C1250   1.085       .  S
C613        C614   1.207       .  T
C615        C616   1.208       .  T
C617        C618   1.342       .  D
C618       H1260   1.086       .  S
H620       C1258   1.085       .  S
C621        C622   1.208       .  T
C623        C624   1.208       .  T
C625        C626   1.343       .  D
C625        H627   1.086       .  S
C626        H628   1.084       .  S
C629        C630   1.204       .  T
C631        C632   1.205       .  T
C633        C634   1.209       .  T
C635        C636   1.206       .  T
C637        C638   1.344       .  D
C637        H639   1.087       .  S
C641        C643   1.538       .  S
C641        C645   1.535       .  S
C641        C644   1.535       .  S
C641        C954   1.476       .  S
C642        C646   1.536       .  S
C642        C648   1.536       .  S
C642        C647   1.532       .  S
C642        C955   1.473       .  S
C643        C651   1.378       .  A
C643        C966   1.396       .  A
C644        C655   1.379       .  A
C644        C967   1.393       .  A
C645        C659   1.376       .  A
C645        C968   1.396       .  A
C646        C963   1.397   1_554  A
C646        C649   1.378       .  A
C647        C964   1.391   1_554  A
C647        C653   1.376       .  A
C648        C965   1.395   1_554  A
C648        C656   1.379       .  A
C649        N650   1.358   1_554  A
C649        H662   1.082       .  S
N650        C971   1.358       .  A
N650        C951   1.405       .  S
C651        N970   1.358       .  A
C651        H652   1.082       .  S
C653        N654   1.361   1_554  A
C653        H663   1.082       .  S
N654        C975   1.357       .  A
N654        C957   1.437       .  S
C655        N974   1.361       .  A
C655        H661   1.082       .  S
C656        N657   1.358   1_554  A
C656        H658   1.082       .  S
N657        C979   1.357       .  A
N657        C950   1.405       .  S
C659        N977   1.357       .  A
C659        H660   1.082       .  S
C664        C666   1.528       .  S
C664        C668   1.532       .  S
C664        C667   1.535       .  S
C664        C956   1.473       .  S
C665        C669   1.536       .  S
C665        C671   1.534       .  S
C665        C670   1.535       .  S
C665        C953   1.476       .  S
C666        C674   1.374       .  A
C666        C669   1.395       .  A
C667        C678   1.377       .  A
C667        C670   1.395       .  A
C668        C682   1.376       .  A
C668        C671   1.395       .  A
C669        C672   1.378       .  A
C670        C676   1.377       .  A
C671        C679   1.377       .  A
C672        N673   1.357       .  A
C672        H685   1.082       .  S
N673        C674   1.354       .  A
N673        C943   1.401       .  S
C674        H675   1.082       .  S
C676        N677   1.361       .  A
C676        H686   1.082       .  S
N677        C678   1.360       .  A
N677        C945   1.441       .  S
C678        H684   1.082       .  S
C679        N680   1.357       .  A
C679        H681   1.082       .  S
N680        C682   1.356       .  A
N680        C942   1.402       .  S
C682        H683   1.082       .  S
C687        C689   1.537       .  S
C687        C690   1.539       .  S
C687        C936   1.472       .  S
C688        C692   1.526       .  S
C688        C693   1.526       .  S
C688        C933   1.469       .  S
C689        C697   1.379       .  A
C689       C1012   1.394   1_554  A
C690       C1013   1.393   1_554  A
C691        C705   1.379       .  A
C691       C1014   1.393   1_554  A
C692       C1009   1.396       .  A
C692        C695   1.371       .  A
C693       C1010   1.393       .  A
C694       C1011   1.396       .  A
C694        C702   1.372       .  A
C695        N696   1.353       .  A
C695        H708   1.083       .  S
N696       C1017   1.357       .  A
N696       C1269   1.397       .  S
C697       N1016   1.357   1_554  A
C697        H698   1.082       .  S
C699        N700   1.359       .  A
C699        H709   1.081       .  S
N700       C1021   1.359       .  A
N700       C1257   1.436       .  S
C701       N1020   1.363   1_554  A
C701        H707   1.082       .  S
C702        N703   1.354       .  A
C702        H704   1.082       .  S
N703       C1025   1.357       .  A
N703       C1272   1.398       .  S
C705       N1023   1.357   1_554  A
C705        H706   1.082       .  S
C710        C712   1.531       .  S
C710        C713   1.535       .  S
C710        C934   1.468       .  S
C711        C715   1.536       .  S
C711        C716   1.532       .  S
C711        C935   1.473       .  S
C712        C720   1.376       .  A
C712        C715   1.396       .  A
C713        C716   1.393       .  A
C714        C728   1.374       .  A
C714        C717   1.398       .  A
C715        C718   1.378       .  A
C717        C725   1.377       .  A
C718        N719   1.358       .  A
C718        H731   1.082       .  S
N719        C720   1.356       .  A
N719        C941   1.403       .  S
C720        H721   1.082       .  S
C722        N723   1.361       .  A
C722        H732   1.082       .  S
N723        C724   1.354       .  A
N723        C929   1.432       .  S
C724        H730   1.081       .  S
C725        N726   1.357       .  A
C725        H727   1.082       .  S
N726        C728   1.355       .  A
N726        C944   1.400       .  S
C728        H729   1.083       .  S
O733       Cu741   2.007       .  S
O733        C743   1.277       .  A
O734       Cu741   2.004       .  S
O734       C1064   1.278   1_554  A
O735       Cu741   1.985       .  S
O735        C745   1.277       .  A
O736      Cu1061   2.001       .  S
O736        C746   1.273       .  A
O737       Cu742   1.996       .  S
O737        C746   1.279       .  A
O738      Cu1062   2.007   1_554  S
O738        C745   1.274       .  A
O739       Cu742   2.016       .  S
O739        C744   1.280       .  A
O740       Cu742   2.017       .  S
O740       C1063   1.278       .  A
Cu741      O1056   2.010   1_554  S
Cu741     Cu1062   2.377   1_554  S
Cu742      O1058   2.013       .  S
Cu742     Cu1061   2.375       .  S
C743       O1060   1.278   1_554  A
C743        C958   1.472       .  S
C744       O1054   1.278       .  A
C744        C917   1.484       .  S
C745        C925   1.466       .  S
C746        C921   1.471       .  S
O747       Cu755   2.012       .  S
O747        C757   1.279       .  A
O748       Cu755   2.011       .  S
O748        C758   1.277       .  A
O749       Cu755   2.011       .  S
O749        C759   1.275       .  A
O750       Cu755   1.986       .  S
O750        C760   1.277       .  A
O751       Cu756   2.009       .  S
O751        C760   1.274       .  A
O752       Cu756   1.988       .  S
O752        C759   1.277       .  A
O753       Cu756   2.003       .  S
O753        C758   1.278       .  A
O754       Cu756   2.013       .  S
O754        C757   1.278       .  A
Cu755      Cu756   2.377       .  S
C757        C946   1.476       .  S
C758        C913   1.472       .  S
C759        C922   1.465       .  S
C760        C926   1.465       .  S
O761       Cu769   2.018   1_655  S
O761        C771   1.278       .  A
O762       Cu769   2.005       .  S
O762       C1092   1.278   1_554  A
O763       Cu769   1.980   1_545  S
O763        C773   1.275       .  A
O764      Cu1089   2.001       .  S
O764        C774   1.274   1_455  A
O765       Cu770   1.989       .  S
O766      Cu1090   2.001   1_554  S
O767       Cu770   2.020       .  S
O768       Cu770   2.000   1_655  S
Cu769      O1084   1.997   1_554  S
Cu770      O1086   2.006       .  S
C771        C938   1.479   1_565  S
C772       O1082   1.279   1_545  A
C773        C909   1.462       .  S
C774        C906   1.461       .  S
O775       Cu783   2.008   1_655  S
O775        C785   1.276   1_565  A
O776       Cu783   1.996       .  S
O776        C786   1.277   1_565  A
O777       Cu783   2.007       .  S
O777        C787   1.274       .  A
O778       Cu783   1.993   1_545  S
O778        C788   1.278       .  A
O779       Cu784   2.004       .  S
O780       Cu784   1.985       .  S
O781       Cu784   2.010       .  S
O782       Cu784   2.020   1_655  S
C785        C930   1.470       .  S
C787        C905   1.465       .  S
C788        C910   1.468       .  S
C789        C791   1.529       .  S
C789        C793   1.530       .  S
C789        C792   1.529       .  S
C789        C893   1.469       .  S
C790        C794   1.530       .  S
C790        C796   1.530       .  S
C790        C795   1.532       .  S
C790        C895   1.471       .  S
C791        C799   1.377       .  A
C791       C1114   1.393       .  A
C792        C803   1.371       .  A
C792       C1115   1.393       .  A
C793        C807   1.376       .  A
C793       C1116   1.395       .  A
C794       C1111   1.394   1_554  A
C794        C797   1.375       .  A
C795       C1112   1.394   1_554  A
C795        C801   1.373       .  A
C796       C1113   1.395   1_554  A
C796        C804   1.375       .  A
C797       N1118   1.355       .  A
C797        H810   1.083       .  S
N798       C1117   1.358       .  A
N798        C799   1.356       .  A
N798        C889   1.405       .  S
C799        H800   1.083       .  S
C801       N1122   1.358       .  A
C801        H811   1.083       .  S
N802       C1121   1.365       .  A
N802        C803   1.356       .  A
N802        C918   1.441       .  S
C803        H809   1.082       .  S
C804       N1125   1.355       .  A
C804        H806   1.083       .  S
N805       C1124   1.360       .  A
N805        C807   1.355       .  A
N805        C891   1.407       .  S
C807        H808   1.082       .  S
C812        C814   1.536       .  S
C812        C816   1.534       .  S
C812        C815   1.531       .  S
C812        C896   1.471       .  S
C813        C817   1.531       .  S
C813        C819   1.531       .  S
C813        C818   1.532       .  S
C813        C894   1.469       .  S
C814        C822   1.379       .  A
C814        C817   1.395       .  A
C815        C826   1.375       .  A
C815        C818   1.392       .  A
C816        C830   1.378       .  A
C816        C819   1.394       .  A
C817        C820   1.375       .  A
C818        C824   1.374       .  A
C819        C827   1.376       .  A
C820        N821   1.355       .  A
C820        H833   1.083       .  S
N821        C822   1.358       .  A
N821        C885   1.403       .  S
C822        H823   1.082       .  S
C824        N825   1.358       .  A
C824        H834   1.082       .  S
N825        C826   1.360       .  A
N825        C914   1.437       .  S
C826        H832   1.082       .  S
C827        N828   1.355       .  A
C827        H829   1.082       .  S
N828        C830   1.358       .  A
N828        C888   1.403       .  S
C830        H831   1.083       .  S
C835        C837   1.530       .  S
C835        C838   1.534       .  S
C835        C883   1.473       .  S
C836        C840   1.544       .  S
C836        C841   1.543       .  S
C836        C881   1.478       .  S
C837        C845   1.376       .  A
C837       C1160   1.396   1_554  A
C838        C849   1.374       .  A
C838       C1161   1.393   1_554  A
C839        C853   1.376       .  A
C839       C1162   1.397   1_554  A
C840       C1157   1.394       .  A
C840        C843   1.383       .  A
C841       C1158   1.394       .  A
C841        C847   1.386       .  A
C842       C1159   1.395       .  A
C842        C850   1.378       .  A
C843        N844   1.360       .  A
C843        H856   1.081       .  S
N844       C1165   1.355       .  A
N844        C892   1.407       .  S
C845       N1164   1.355       .  A
C845        H846   1.082       .  S
N848        C901   1.439       .  S
C850        N851   1.357       .  A
C850        H852   1.082       .  S
N851       C1173   1.357       .  A
N851        C890   1.405       .  S
C853       N1171   1.356       .  A
C853        H854   1.082       .  S
C858        C860   1.539       .  S
C858        C861   1.537       .  S
C858        C882   1.479       .  S
C859        C863   1.528       .  S
C859        C864   1.526       .  S
C859        C884   1.473       .  S
C860        C868   1.379       .  A
C860        C863   1.396       .  A
C861        C872   1.380       .  A
C861        C864   1.393       .  A
C862        C876   1.378       .  A
C862        C865   1.395       .  A
C863        C866   1.374       .  A
C864        C870   1.370       .  A
C865        C873   1.377       .  A
C866        N867   1.355       .  A
C866        H879   1.083       .  S
N867        C868   1.358       .  A
N867        C887   1.403       .  S
C868        H869   1.081       .  S
N871        C898   1.439       .  S
C873        N874   1.355       .  A
C873        H875   1.082       .  S
N874        C876   1.357       .  A
N874        C886   1.403       .  S
C876        H877   1.082       .  S
C881        C882   1.212       .  T
C883        C884   1.208       .  T
C885        C886   1.207       .  T
C887        C888   1.207       .  T
C889        C890   1.209       .  T
C891        C892   1.210       .  T
C893        C894   1.206       .  T
C895        C896   1.207       .  T
C897        C898   1.345       .  D
C897        H899   1.085       .  S
C901        C902   1.345       .  D
C902        H904   1.086       .  S
C905        C906   1.334   1_455  D
C905        H907   1.087       .  S
C909        C910   1.337       .  D
C910        H912   1.087   1_455  S
C913        C914   1.345       .  D
C913        H915   1.085       .  S
C914        H916   1.087       .  S
C917        C918   1.345       .  D
C917        H919   1.086       .  S
C918       H1240   1.087       .  S
H920       C1238   1.088       .  S
C921        C922   1.334       .  D
C921        H923   1.086       .  S
C922        H924   1.087       .  S
C925        C926   1.339       .  D
C925        H927   1.087       .  S
C926        H928   1.088       .  S
C929        C930   1.340       .  D
C929        H931   1.087       .  S
C933        C934   1.206       .  T
C935        C936   1.208       .  T
C937       N1020   1.438       .  S
C937        C938   1.344   1_556  D
C937       H1259   1.087       .  S
H939       C1257   1.088       .  S
C941        C942   1.207       .  T
C943        C944   1.205       .  T
C945        C946   1.346       .  D
C945        H947   1.087       .  S
C946        H948   1.085       .  S
C949       N1016   1.406       .  S
C949        C950   1.209       .  T
C951        C952   1.209       .  T
C952       N1023   1.405       .  S
C953        C954   1.210       .  T
C955        C956   1.209       .  T
C957        C958   1.343   1_556  D
C957        H959   1.087       .  S
C958       H1280   1.085       .  S
H960       C1278   1.086       .  S
C961        C963   1.536       .  S
C961        C965   1.533       .  S
C961        C964   1.529       .  S
C961       C1274   1.472       .  S
C962        C966   1.524       .  S
C962        C968   1.527       .  S
C962        C967   1.527       .  S
C962       C1275   1.470       .  S
C963        C971   1.378       .  A
C964        C975   1.374       .  A
C965        C979   1.378       .  A
C966        C969   1.371       .  A
C967        C973   1.369       .  A
C968        C976   1.372       .  A
C969        N970   1.353       .  A
C969        H982   1.083       .  S
N970       C1271   1.398       .  S
C971        H972   1.082       .  S
C973        N974   1.355       .  A
C973        H983   1.081       .  S
N974       C1277   1.433       .  S
C975        H981   1.082       .  S
C976        N977   1.353       .  A
C976        H978   1.082       .  S
N977       C1270   1.397       .  S
C979        H980   1.083       .  S
C984        C986   1.531       .  S
C984        C988   1.531       .  S
C984        C987   1.532       .  S
C984       C1276   1.470       .  S
C985        C989   1.532       .  S
C985        C991   1.534       .  S
C985        C990   1.536       .  S
C985       C1273   1.471       .  S
C986        C994   1.376       .  A
C986        C989   1.394       .  A
C987        C998   1.376       .  A
C987        C990   1.393       .  A
C988       C1002   1.374       .  A
C988        C991   1.395       .  A
C989        C992   1.376       .  A
C990        C996   1.378       .  A
C991        C999   1.378       .  A
C992        N993   1.356       .  A
C992       H1005   1.082       .  S
N993        C994   1.356       .  A
N993       C1263   1.401       .  S
C994        H995   1.083       .  S
C996        N997   1.362       .  A
C996       H1006   1.082       .  S
N997        C998   1.358       .  A
N997       C1265   1.441       .  S
C998       H1004   1.080       .  S
C999       N1000   1.357       .  A
C999       H1001   1.082       .  S
N1000      C1002   1.355       .  A
N1000      C1262   1.401       .  S
C1002      H1003   1.082       .  S
C1007      C1009   1.536       .  S
C1007      C1010   1.535       .  S
C1007      C1256   1.476       .  S
C1008      C1012   1.533       .  S
C1008      C1013   1.532       .  S
C1008      C1253   1.472       .  S
C1009      C1017   1.376       .  A
C1011      C1025   1.376       .  A
C1012      C1015   1.378       .  A
C1014      C1022   1.378       .  A
C1015      N1016   1.357       .  A
C1015      H1028   1.082       .  S
C1017      H1018   1.082       .  S
C1019      N1020   1.356       .  A
C1019      H1029   1.082       .  S
C1021      H1027   1.081       .  S
C1022      N1023   1.357       .  A
C1022      H1024   1.082       .  S
C1025      H1026   1.083       .  S
C1030      C1032   1.526       .  S
C1030      C1033   1.532       .  S
C1030      C1254   1.472       .  S
C1031      C1035   1.538       .  S
C1031      C1036   1.538       .  S
C1031      C1255   1.476       .  S
C1032      C1040   1.373       .  A
C1032      C1035   1.394       .  A
C1033      C1036   1.394       .  A
C1034      C1048   1.377       .  A
C1034      C1037   1.395       .  A
C1035      C1038   1.379       .  A
C1037      C1045   1.376       .  A
C1038      N1039   1.358       .  A
C1038      H1051   1.082       .  S
N1039      C1040   1.354       .  A
N1039      C1261   1.401       .  S
C1040      H1041   1.083       .  S
C1042      N1043   1.364       .  A
C1042      H1052   1.082       .  S
N1043      C1044   1.356       .  A
N1043      C1249   1.440       .  S
C1044      H1050   1.081       .  S
C1045      N1046   1.356       .  A
C1045      H1047   1.082       .  S
N1046      C1048   1.356       .  A
N1046      C1264   1.401       .  S
C1048      H1049   1.082       .  S
O1053     Cu1061   1.997       .  S
O1053      C1063   1.278       .  A
O1054     Cu1061   2.023       .  S
O1055     Cu1061   1.981       .  S
O1055      C1065   1.276       .  A
O1056      C1066   1.274       .  A
O1057     Cu1062   1.981       .  S
O1057      C1066   1.276       .  A
O1058      C1065   1.275       .  A
O1059     Cu1062   2.008       .  S
O1059      C1064   1.277       .  A
O1060     Cu1062   2.003       .  S
C1063      C1278   1.474       .  S
C1064      C1237   1.471       .  S
C1065      C1245   1.465       .  S
C1066      C1241   1.466       .  S
O1067     Cu1075   2.013       .  S
O1067      C1077   1.279       .  A
O1068     Cu1075   2.009       .  S
O1068      C1078   1.277       .  A
O1069     Cu1075   2.014       .  S
O1069      C1079   1.275       .  A
O1070     Cu1075   1.990       .  S
O1070      C1080   1.278       .  A
O1071     Cu1076   2.004       .  S
O1071      C1080   1.273       .  A
O1072     Cu1076   1.988       .  S
O1072      C1079   1.277       .  A
O1073     Cu1076   2.003       .  S
O1073      C1078   1.278       .  A
O1074     Cu1076   2.015       .  S
O1074      C1077   1.278       .  A
Cu1075    Cu1076   2.376       .  S
C1077      C1266   1.477       .  S
C1078      C1233   1.472       .  S
C1079      C1242   1.469       .  S
C1080      C1246   1.470       .  S
O1081     Cu1089   2.010   1_655  S
O1081      C1091   1.277   1_565  A
O1082     Cu1089   2.013       .  S
O1083     Cu1089   1.982   1_545  S
O1083      C1093   1.276       .  A
O1084      C1094   1.275   1_455  A
O1085     Cu1090   1.982       .  S
O1087     Cu1090   2.007       .  S
O1088     Cu1090   2.008   1_655  S
C1091      C1258   1.469       .  S
C1093      C1229   1.475       .  S
C1094      C1226   1.480       .  S
O1095     Cu1103   2.016   1_655  S
O1095      C1105   1.277   1_565  A
O1096     Cu1103   2.003       .  S
O1096      C1106   1.278       .  A
O1097     Cu1103   1.993       .  S
O1097      C1107   1.274   1_455  A
O1098     Cu1103   1.974   1_545  S
O1098      C1108   1.274       .  A
O1099     Cu1104   2.004       .  S
O1100     Cu1104   1.986   1_655  S
O1101     Cu1104   2.020       .  S
O1102     Cu1104   2.013   1_655  S
C1105      C1250   1.480       .  S
C1107      C1225   1.480       .  S
C1108      C1230   1.470       .  S
C1109      C1111   1.532       .  S
C1109      C1113   1.534       .  S
C1109      C1112   1.533       .  S
C1109      C1213   1.473       .  S
C1110      C1114   1.539       .  S
C1110      C1116   1.542       .  S
C1110      C1115   1.543       .  S
C1110      C1215   1.477       .  S
C1111      C1119   1.376       .  A
C1112      C1123   1.375       .  A
C1113      C1127   1.377       .  A
C1114      C1117   1.380       .  A
C1115      C1121   1.387       .  A
C1116      C1124   1.382       .  A
C1117      H1130   1.082       .  S
N1118      C1119   1.356   1_554  A
N1118      C1209   1.400       .  S
C1119      H1120   1.082       .  S
C1121      H1131   1.082       .  S
N1122      C1123   1.361   1_554  A
N1122      C1238   1.437       .  S
C1123      H1129   1.082       .  S
C1124      H1126   1.082       .  S
N1125      C1127   1.356   1_554  A
N1125      C1211   1.401       .  S
C1127      H1128   1.082       .  S
C1132      C1134   1.540       .  S
C1132      C1136   1.532       .  S
C1132      C1135   1.535       .  S
C1132      C1216   1.478       .  S
C1133      C1137   1.529       .  S
C1133      C1139   1.530       .  S
C1133      C1138   1.527       .  S
C1133      C1214   1.473       .  S
C1134      C1142   1.379       .  A
C1134      C1137   1.397       .  A
C1135      C1146   1.377       .  A
C1135      C1138   1.393       .  A
C1136      C1150   1.375       .  A
C1136      C1139   1.395       .  A
C1137      C1140   1.374       .  A
C1138      C1144   1.371       .  A
C1139      C1147   1.375       .  A
C1140      N1141   1.355       .  A
C1140      H1153   1.083       .  S
N1141      C1142   1.359       .  A
N1141      C1205   1.402       .  S
C1142      H1143   1.082       .  S
C1144      N1145   1.355       .  A
C1144      H1154   1.083       .  S
N1145      C1146   1.362       .  A
N1145      C1234   1.435       .  S
C1146      H1152   1.082       .  S
C1147      N1148   1.355       .  A
C1147      H1149   1.082       .  S
N1148      C1150   1.356       .  A
N1148      C1208   1.399       .  S
C1150      H1151   1.082       .  S
C1155      C1157   1.528       .  S
C1155      C1158   1.530       .  S
C1155      C1203   1.471       .  S
C1156      C1160   1.535       .  S
C1156      C1161   1.531       .  S
C1156      C1201   1.471       .  S
C1157      C1165   1.375       .  A
C1158      C1169   1.372       .  A
C1159      C1173   1.378       .  A
C1160      C1163   1.377       .  A
C1161      C1167   1.376       .  A
C1162      C1170   1.375       .  A
C1163      N1164   1.356   1_556  A
C1163      H1176   1.082       .  S
N1164      C1212   1.401       .  S
C1165      H1166   1.083       .  S
N1168      C1221   1.431       .  S
C1170      N1171   1.356   1_556  A
C1170      H1172   1.082       .  S
N1171      C1210   1.400       .  S
C1173      H1174   1.082       .  S
C1178      C1180   1.534       .  S
C1178      C1181   1.536       .  S
C1178      C1202   1.470       .  S
C1179      C1183   1.529       .  S
C1179      C1184   1.531       .  S
C1179      C1204   1.471       .  S
C1180      C1188   1.376       .  A
C1180      C1183   1.395       .  A
C1181      C1192   1.380       .  A
C1181      C1184   1.393       .  A
C1182      C1196   1.378       .  A
C1182      C1185   1.395       .  A
C1183      C1186   1.374       .  A
C1184      C1190   1.371       .  A
C1185      C1193   1.375       .  A
C1186      N1187   1.355       .  A
C1186      H1199   1.082       .  S
N1187      C1188   1.356       .  A
N1187      C1207   1.399       .  S
C1188      H1189   1.082       .  S
N1191      C1218   1.438       .  S
C1193      N1194   1.355       .  A
C1193      H1195   1.082       .  S
N1194      C1196   1.357       .  A
N1194      C1206   1.402       .  S
C1196      H1197   1.082       .  S
C1201      C1202   1.207       .  T
C1203      C1204   1.207       .  T
C1205      C1206   1.206       .  T
C1207      C1208   1.204       .  T
C1209      C1210   1.205       .  T
C1211      C1212   1.206       .  T
C1213      C1214   1.208       .  T
C1215      C1216   1.211       .  T
C1217      C1218   1.345       .  D
C1217      H1219   1.086       .  S
C1221      C1222   1.341   1_554  D
C1222      H1224   1.086       .  S
C1225      C1226   1.351       .  D
C1225      H1227   1.087       .  S
C1229      C1230   1.340       .  D
C1230      H1232   1.087       .  S
C1233      C1234   1.342       .  D
C1233      H1235   1.086       .  S
C1234      H1236   1.087       .  S
C1237      C1238   1.343   1_556  D
C1237      H1239   1.085       .  S
C1241      C1242   1.338       .  D
C1241      H1243   1.087       .  S
C1242      H1244   1.087       .  S
C1245      C1246   1.336       .  D
C1245      H1247   1.087       .  S
C1246      H1248   1.086       .  S
C1249      C1250   1.344       .  D
C1249      H1251   1.087       .  S
C1253      C1254   1.208       .  T
C1255      C1256   1.210       .  T
C1257      C1258   1.345       .  D
C1261      C1262   1.206       .  T
C1263      C1264   1.205       .  T
C1265      C1266   1.345       .  D
C1265      H1267   1.087       .  S
C1266      H1268   1.085       .  S
C1269      C1270   1.202       .  T
C1271      C1272   1.203       .  T
C1273      C1274   1.208       .  T
C1275      C1276   1.206       .  T
C1277      C1278   1.342       .  D
C1277      H1279   1.087       .  S
