geometry optimzed in LAMMPS
_audit_creation_date              2020-11-30 
_audit_creation_method            'lammps2cif' 
_symmetry_space_group_name_H-M    'P1' 
_symmetry_Int_Tables_number       1 
_symmetry_cell_setting            triclinic 
loop_ 
_symmetry_equiv_pos_as_xyz 
  x,y,z 
_cell_length_a                    38.86311292 
_cell_length_b                    38.724841745982744 
_cell_length_c                    38.709796642439976 
_cell_angle_alpha                 90.00790202035594 
_cell_angle_beta                  89.77870734834207 
_cell_angle_gamma                 89.88428480337564 
loop_ 
_atom_site_label 
_atom_site_type_symbol 
_atom_site_fract_x 
_atom_site_fract_y 
_atom_site_fract_z 
_atom_site_charge 
O1          O  0.46823837  0.53805317  0.97668415    -0.72000
O2          O  0.53794226  0.46165689  0.97095286    -0.72900
O3          O  0.46523568  0.46549048  0.97691297    -0.61600
O4          O  0.54105709  0.53498036  0.97079910    -0.70000
O5          O  0.54456416  0.53590869  0.02812998    -0.69500
O6          O  0.47096093  0.46402803  0.03403896    -0.60800
O7          O  0.54396016  0.46317860  0.02802124    -0.73300
O8          O  0.47188090  0.53746302  0.03398575    -0.72100
Cu9        Cu  0.50301063  0.50003190  0.97181304     1.04600
Cu10       Cu  0.50797812  0.50010538  0.03308001     1.04300
C11         C  0.45883827  0.54942189  0.00620300     0.94200
C12         C  0.55223862  0.45082399  0.99855740     0.93400
C13         C  0.45622773  0.45391359  0.00642848     0.85500
C14         C  0.55447840  0.54650231  0.99854017     0.91800
O15         O  0.53658614  0.97943940  0.47205900    -0.72000
O16         O  0.46138358  0.99082106  0.54288374    -0.72900
O17         O  0.46317213  0.97681711  0.47086149    -0.61600
O18         O  0.53427161  0.99336905  0.54392717    -0.70000
O19         O  0.53280163  0.04961818  0.53259066    -0.69500
O20         O  0.46124235  0.03310117  0.45972798    -0.60800
O21         O  0.45910248  0.04705665  0.53166731    -0.73300
O22         O  0.53395757  0.03558826  0.46045631    -0.72100
Cu23       Cu  0.49890666  0.98313958  0.50780825     1.04600
Cu24       Cu  0.49672151  0.04334455  0.49578583     1.04300
C25         C  0.54696329  0.00575121  0.45509947     0.94200
C26         C  0.44837233  0.02065198  0.54827323     0.93400
C27         C  0.45107128  0.00234174  0.45388002     0.85500
C28         C  0.54484251  0.02403080  0.54954814     0.91800
O29         O  0.01371457  0.45306671  0.54104846    -0.72000
O30         O  0.03965480  0.52597132  0.47146943    -0.72900
O31         O  0.02583499  0.52486259  0.54407205    -0.61600
O32         O  0.02753168  0.45329737  0.46934015    -0.70000
O33         O  0.97252653  0.46407628  0.45788286    -0.69500
O34         O  0.97064819  0.53510463  0.53299340    -0.60800
O35         O  0.98423854  0.53574407  0.46130196    -0.73300
O36         O  0.95840120  0.46270311  0.53015607    -0.72100
Cu37       Cu  0.02867682  0.48897599  0.50682773     1.04600
Cu38       Cu  0.96951173  0.49971303  0.49527558     1.04300
C39         C  0.98196443  0.44653351  0.54645702     0.94200
C40         C  0.01589279  0.54219719  0.45541408     0.93400
C41         C  0.99791987  0.54118620  0.55020366     0.85500
C42         C  0.00035064  0.44754674  0.45187628     0.91800
N43         N  0.34296673  0.27026240  0.98762910    -0.26300
N44         N  0.37459210  0.27677153  0.99800924    -0.34200
C45         C  0.39119694  0.24663023  0.00303679     0.02000
C46         C  0.36851182  0.22004420  0.99580707     0.08100
C47         C  0.33833424  0.23607189  0.98591195    -0.05000
H48         H  0.41717868  0.24429484  0.01269121     0.08700
H49         H  0.31436647  0.22384898  0.97883148     0.09900
Cu50       Cu  0.39118977  0.32673174  0.00647000     0.44200
Cu51       Cu  0.30607545  0.30750402  0.98032296     0.42000
Cu52       Cu  0.32584085  0.39611706  0.99346087     0.43900
N53         N  0.40083775  0.37922077  0.00816337    -0.33700
N54         N  0.37796302  0.40389793  0.00212070    -0.27900
C55         C  0.39417913  0.43451546  0.00176377    -0.04000
C56         C  0.42852733  0.42875821  0.00845166     0.08200
C57         C  0.43200804  0.39357825  0.01227536     0.02000
H58         H  0.38196790  0.45905642  0.99626006     0.09600
H59         H  0.45563822  0.37929410  0.01597291     0.08700
N60         N  0.27583841  0.37852638  0.98742370    -0.35100
N61         N  0.26923350  0.34547846  0.98247043    -0.27300
C62         C  0.23515371  0.34055724  0.98245146    -0.02600
C63         C  0.21924721  0.37203488  0.98767232     0.06100
C64         C  0.24579076  0.39575061  0.99045594     0.04100
H65         H  0.22292312  0.31563339  0.97976471     0.09200
H66         H  0.24349705  0.42303923  0.99599667     0.08100
N67         N  0.27185611  0.65919487  0.98592906    -0.26300
N68         N  0.27866799  0.62634291  0.99178154    -0.34200
C69         C  0.24870329  0.60902696  0.99459049     0.02000
C70         C  0.22191763  0.63249774  0.99061239     0.08100
C71         C  0.23775453  0.66389971  0.98483182    -0.05000
H72         H  0.24659961  0.58189948  0.00089063     0.08700
H73         H  0.22549131  0.68873589  0.98126808     0.09900
Cu74       Cu  0.32900681  0.60968208  0.99861006     0.44200
Cu75       Cu  0.30845552  0.69725569  0.98543615     0.42000
Cu76       Cu  0.39534016  0.67930074  0.00836730     0.43900
N77         N  0.38159913  0.60182846  0.00448114    -0.33700
N78         N  0.40516111  0.62625039  0.00838327    -0.27900
C79         C  0.43635606  0.61120030  0.01066097    -0.04000
C80         C  0.43207458  0.57591081  0.00807355     0.08200
C81         C  0.39725364  0.57084792  0.00396830     0.02000
H82         H  0.46042216  0.62500164  0.01298600     0.09600
H83         H  0.38424285  0.54644993  0.00026698     0.08700
N84         N  0.37613648  0.72946279  0.00408435    -0.35100
N85         N  0.34395447  0.73516971  0.99493356    -0.27300
C86         C  0.33789231  0.76918523  0.99421284    -0.02600
C87         C  0.36763880  0.78628578  0.00349368     0.06100
C88         C  0.39159563  0.76018666  0.00940850     0.04100
H89         H  0.31351693  0.78049666  0.98692196     0.09200
H90         H  0.41805040  0.76319861  0.01740355     0.08100
N91         N  0.33311183  0.03339322  0.73506779    -0.26300
N92         N  0.36589382  0.02833782  0.72749651    -0.34200
C93         C  0.38349893  0.02335734  0.75703626     0.02000
C94         C  0.36045685  0.02502651  0.78445850     0.08100
C95         C  0.32885903  0.03169302  0.76942487    -0.05000
H96         H  0.41064919  0.01730219  0.75828342     0.08700
H97         H  0.30427257  0.03417778  0.78238643     0.09900
Cu98       Cu  0.38329120  0.02584266  0.67681804     0.44200
Cu99       Cu  0.29467790  0.03767332  0.69848341     0.42000
Cu100      Cu  0.31680786  0.02823192  0.60869616     0.43900
N101        N  0.39348265  0.02551457  0.62414076    -0.33700
N102        N  0.36993389  0.02733305  0.59952552    -0.27900
C103        C  0.38598181  0.02689989  0.56858341    -0.04000
C104        C  0.42104338  0.02452577  0.57416721     0.08200
C105        C  0.42487379  0.02346768  0.60953292     0.02000
H106        H  0.37303736  0.02727714  0.54388393     0.09600
H107        H  0.44873200  0.02113137  0.62367748     0.08700
N108        N  0.26604564  0.02754571  0.62689444    -0.35100
N109        N  0.25844319  0.03180826  0.65991573    -0.27300
C110        C  0.22436545  0.02831800  0.66445135    -0.02600
C111        C  0.20937887  0.02115875  0.63282700     0.06100
C112        C  0.23670261  0.02113865  0.60949433     0.04100
H113        H  0.21161620  0.03027019  0.68926052     0.09200
H114        H  0.23558647  0.01544147  0.58217383     0.08100
O115        O  0.35055184  0.95293063  0.00034252    -0.72000
O116        O  0.35202152  0.05536124  0.00181145    -0.72900
O117        O  0.34998530  0.00521613  0.94934739    -0.61600
O118        O  0.35274824  0.00347720  0.05227964    -0.70000
O119        O  0.40978449  0.00138674  0.05111017    -0.69500
O120        O  0.40695492  0.00547195  0.94680488    -0.60800
O121        O  0.40901850  0.05547937  0.00081601    -0.73300
O122        O  0.40742285  0.95115443  0.99770718    -0.72100
Cu123      Cu  0.34948140  0.00424421  0.00091017     1.04600
Cu124      Cu  0.41040684  0.00330965  0.99895112     1.04300
C125        C  0.37847178  0.93555921  0.99961728     0.94200
C126        C  0.38040136  0.07183399  0.00200905     0.93400
C127        C  0.37776519  0.00613902  0.93164818     0.85500
C128        C  0.38149168  0.00205947  0.06807305     0.91800
N129        N  0.34248070  0.98141738  0.26529948    -0.26300
N130        N  0.37549273  0.98442792  0.27261499    -0.34200
C131        C  0.39325011  0.98830462  0.24283074     0.02000
C132        C  0.36993079  0.98814152  0.21575436     0.08100
C133        C  0.33814509  0.98349811  0.23107546    -0.05000
H134        H  0.42069528  0.99264279  0.24115830     0.08700
H135        H  0.31341702  0.98262595  0.21836424     0.09900
Cu136      Cu  0.39236988  0.98653493  0.32348713     0.44200
Cu137      Cu  0.30382782  0.97844903  0.30156582     0.42000
Cu138      Cu  0.32306498  0.98610834  0.39077695     0.43900
N139        N  0.40014103  0.99036520  0.37652417    -0.33700
N140        N  0.37562067  0.98985607  0.40044561    -0.27900
C141        C  0.39016638  0.99340449  0.43174348    -0.04000
C142        C  0.42526640  0.99631473  0.42721821     0.08200
C143        C  0.43076947  0.99446291  0.39205883     0.02000
H144        H  0.37612978  0.99449539  0.45592088     0.09600
H145        H  0.45519777  0.99629410  0.37867603     0.08700
N146        N  0.27285416  0.98424012  0.37238232    -0.35100
N147        N  0.26633605  0.98139410  0.33906870    -0.27300
C148        C  0.23226428  0.98287264  0.33399562    -0.02600
C149        C  0.21622480  0.98691404  0.36567890     0.06100
C150        C  0.24277786  0.98744140  0.38958522     0.04100
H151        H  0.22015729  0.98150209  0.30891572     0.09200
H152        H  0.24050937  0.99120997  0.41718835     0.08100
N153        N  0.66594446  0.26372644  0.98601785    -0.26300
N154        N  0.63282457  0.27116200  0.98454262    -0.34200
C155        C  0.61479476  0.24144656  0.98463307     0.02000
C156        C  0.63793765  0.21412944  0.98594725     0.08100
C157        C  0.67005738  0.22937359  0.98685845    -0.05000
H158        H  0.58702753  0.23988499  0.98374691     0.08700
H159        H  0.69469528  0.21650850  0.98899353     0.09900
Cu160      Cu  0.61540600  0.32192425  0.98419466     0.44200
Cu161      Cu  0.70412571  0.30024371  0.98946806     0.42000
Cu162      Cu  0.68150831  0.38829869  0.00448214     0.43900
N163        N  0.60583002  0.37443015  0.99022701    -0.33700
N164        N  0.62908581  0.39765488  0.99940230    -0.27900
C165        C  0.61340498  0.42833826  0.00375001    -0.04000
C166        C  0.57895069  0.42431436  0.99642565     0.08200
C167        C  0.57493724  0.38999424  0.98782787     0.02000
H168        H  0.62623831  0.45190843  0.01135088     0.09600
H169        H  0.55118333  0.37703626  0.98131504     0.08700
N170        N  0.73215901  0.37113353  0.00353935    -0.35100
N171        N  0.73985538  0.33843007  0.99768485    -0.27300
C172        C  0.77405857  0.33434011  0.99841424    -0.02600
C173        C  0.78895544  0.36599493  0.00510216     0.06100
C174        C  0.76160023  0.38893437  0.00799819     0.04100
H175        H  0.78709410  0.31003304  0.99390835     0.09200
H176        H  0.76291878  0.41632068  0.01331709     0.08100
N177        N  0.97213565  0.25930806  0.65874111    -0.26300
N178        N  0.96968801  0.26640249  0.62547929    -0.34200
C179        C  0.97020360  0.23650878  0.60756521     0.02000
C180        C  0.97292633  0.20936041  0.63088286     0.08100
C181        C  0.97428228  0.22501973  0.66299730    -0.05000
H182        H  0.96833210  0.23472840  0.57975549     0.08700
H183        H  0.97720208  0.21251588  0.68779723     0.09900
Cu184      Cu  0.96648386  0.31700528  0.60756795     0.44200
Cu185      Cu  0.97284543  0.29607877  0.69735019     0.42000
Cu186      Cu  0.96816036  0.38514952  0.67539857     0.43900
N187        N  0.96714899  0.37000610  0.59823875    -0.33700
N188        N  0.96760072  0.39416226  0.62250027    -0.27900
C189        C  0.97107595  0.42523637  0.60740952    -0.04000
C190        C  0.97261980  0.42048877  0.57213896     0.08200
C191        C  0.97032142  0.38526245  0.56713774     0.02000
H192        H  0.97408318  0.44933391  0.62122602     0.09600
H193        H  0.97260155  0.37157987  0.54285506     0.08700
N194        N  0.97394977  0.36829050  0.72594688    -0.35100
N195        N  0.97553433  0.33511216  0.73355772    -0.27300
C196        C  0.98105391  0.33144303  0.76751586    -0.02600
C197        C  0.98349073  0.36391974  0.78229838     0.06100
C198        C  0.97855480  0.38677226  0.75509189     0.04100
H199        H  0.98333766  0.30675204  0.78035729     0.09200
H200        H  0.97949029  0.41466316  0.75609487     0.08100
O201        O  0.00592199  0.41205729  0.04943519    -0.72000
O202        O  0.00081785  0.41168761  0.94497262    -0.72900
O203        O  0.95164436  0.41122080  0.00009763    -0.61600
O204        O  0.05532210  0.41269005  0.99460458    -0.70000
O205        O  0.05558071  0.35540745  0.99534876    -0.69500
O206        O  0.95351127  0.35399629  0.00030971    -0.60800
O207        O  0.00250397  0.35446086  0.94616080    -0.73300
O208        O  0.00708356  0.35480099  0.04867580    -0.72100
Cu209      Cu  0.00338237  0.41405565  0.99719255     1.04600
Cu210      Cu  0.00464425  0.35281816  0.99752067     1.04300
C211        C  0.00756122  0.38316927  0.06540897     0.94200
C212        C  0.00113244  0.38266507  0.92916280     0.93400
C213        C  0.93630858  0.38208205  0.00164806     0.85500
C214        C  0.07174706  0.38403410  0.99484891     0.91800
N215        N  0.00208415  0.26169434  0.33705818    -0.26300
N216        N  0.00604610  0.26895520  0.37010129    -0.34200
C217        C  0.00526457  0.23931542  0.38831104     0.02000
C218        C  0.00037098  0.21221032  0.36539165     0.08100
C219        C  0.99867304  0.22749594  0.33315972    -0.05000
H220        H  0.00722436  0.23776005  0.41613202     0.08700
H221        H  0.99541905  0.21476127  0.30851891     0.09900
Cu222      Cu  0.01000412  0.31948937  0.38726703     0.44200
Cu223      Cu  0.00055529  0.29845310  0.29879402     0.42000
Cu224      Cu  0.99442838  0.38761873  0.32103049     0.43900
N225        N  0.00581749  0.37198668  0.39707523    -0.33700
N226        N  0.99776059  0.39587392  0.37393528    -0.27900
C227        C  0.99422968  0.42644131  0.39006186    -0.04000
C228        C  0.00107249  0.42155864  0.42464211     0.08200
C229        C  0.00846170  0.38694414  0.42828091     0.02000
H230        H  0.98793433  0.45053985  0.37739590     0.09600
H231        H  0.01438796  0.37340722  0.45198695     0.08700
N232        N  0.99833724  0.37062337  0.27029778    -0.35100
N233        N  0.00044839  0.33745487  0.26278500    -0.27300
C234        C  0.00390369  0.33358815  0.22859228    -0.02600
C235        C  0.00447843  0.36593827  0.21342029     0.06100
C236        C  0.00062356  0.38893807  0.24075506     0.04100
H237        H  0.00567036  0.30879055  0.21586738     0.09200
H238        H  0.00043513  0.41683152  0.23948560     0.08100
N239        N  0.01421888  0.65556221  0.26872199    -0.26300
N240        N  0.01614240  0.62219264  0.27535883    -0.34200
C241        C  0.01370471  0.60472595  0.24528303     0.02000
C242        C  0.00977709  0.62852550  0.21866367     0.08100
C243        C  0.01033060  0.66040369  0.23469599    -0.05000
H244        H  0.01441244  0.57689587  0.24303209     0.08700
H245        H  0.00881386  0.68549122  0.22250999     0.09900
Cu246      Cu  0.02172846  0.60421739  0.32585544     0.44200
Cu247      Cu  0.01740239  0.69347941  0.30566386     0.42000
Cu248      Cu  0.02351845  0.67241116  0.39471060     0.43900
N249        N  0.02520068  0.59510515  0.37892554    -0.33700
N250        N  0.02576693  0.61918878  0.40328689    -0.27900
C251        C  0.02515375  0.60368505  0.43442669    -0.04000
C252        C  0.02460702  0.56835625  0.42950612     0.08200
C253        C  0.02421927  0.56385010  0.39411240     0.02000
H254        H  0.02312984  0.61719826  0.45882612     0.09600
H255        H  0.02131259  0.53968103  0.38039578     0.08700
N256        N  0.01965893  0.72325694  0.37725230    -0.35100
N257        N  0.01797366  0.73020611  0.34393373    -0.27300
C258        C  0.01453913  0.76430175  0.33939154    -0.02600
C259        C  0.01351825  0.78007891  0.37142579     0.06100
C260        C  0.01718191  0.75320023  0.39500124     0.04100
H261        H  0.01260019  0.77655977  0.31437329     0.09200
H262        H  0.01687595  0.75509093  0.42287394     0.08100
N263        N  0.73573865  0.00502329  0.34427413    -0.26300
N264        N  0.72844648  0.00082625  0.37735899    -0.34200
C265        C  0.75821162  0.99848814  0.39508124     0.02000
C266        C  0.78528153  0.00094499  0.37170181     0.08100
C267        C  0.76993860  0.00522174  0.33987461    -0.05000
H268        H  0.75999627  0.99406393  0.42260653     0.08700
H269        H  0.78267775  0.00777142  0.31510797     0.09900
Cu270      Cu  0.67777220  0.99713045  0.39481319     0.44200
Cu271      Cu  0.69967711  0.00807054  0.30564701     0.42000
Cu272      Cu  0.61101184  0.00424424  0.32584600     0.43900
N273        N  0.62470671  0.99817706  0.40320548    -0.33700
N274        N  0.60123230  0.00208522  0.37872696    -0.27900
C275        C  0.56999608  0.00471156  0.39358869    -0.04000
C276        C  0.57388577  0.00174770  0.42885658     0.08200
C277        C  0.60877578  0.99765601  0.43417164     0.02000
H278        H  0.54622048  0.00882733  0.37970691     0.09600
H279        H  0.62177960  0.99581983  0.45877714     0.08700
N280        N  0.62894438  0.00510004  0.27515301    -0.35100
N281        N  0.66218441  0.00673196  0.26833091    -0.27300
C282        C  0.66710268  0.00596513  0.23407257    -0.02600
C283        C  0.63540082  0.00353971  0.21813519     0.06100
C284        C  0.61162584  0.00327147  0.24506383     0.04100
H285        H  0.69210552  0.00714119  0.22175920     0.09200
H286        H  0.58397422  0.00100547  0.24302925     0.08100
O287        O  0.00178048  0.94455289  0.35666735    -0.72000
O288        O  0.99813085  0.04740050  0.35492849    -0.72900
O289        O  0.05144021  0.99763324  0.35441851    -0.61600
O290        O  0.94918089  0.99432579  0.35686914    -0.70000
O291        O  0.94930422  0.99672067  0.41411369    -0.69500
O292        O  0.05345353  0.99692150  0.41166393    -0.60800
O293        O  0.00105429  0.04898085  0.41215545    -0.73300
O294        O  0.00213988  0.94466618  0.41396884    -0.72100
Cu295      Cu  0.00015792  0.99596455  0.35385843     1.04600
Cu296      Cu  0.00153671  0.99688689  0.41510852     1.04300
C297        C  0.00217682  0.92821496  0.38531826     0.94200
C298        C  0.99882934  0.06451490  0.38309659     0.93400
C299        C  0.06877723  0.99735953  0.38235540     0.85500
C300        C  0.93290765  0.99516239  0.38553352     0.91800
N301        N  0.66682953  0.73369842  0.00705352    -0.26300
N302        N  0.63383712  0.72578595  0.00601196    -0.34200
C303        C  0.61510712  0.75504839  0.00788156     0.02000
C304        C  0.63754240  0.78275584  0.01039786     0.08100
C305        C  0.67010265  0.76808379  0.00966259    -0.05000
H306        H  0.58729378  0.75595817  0.00777767     0.08700
H307        H  0.69452580  0.78140506  0.01028998     0.09900
Cu308      Cu  0.61723818  0.67518832  0.00204246     0.44200
Cu309      Cu  0.70589412  0.69737107  0.00471813     0.42000
Cu310      Cu  0.68441258  0.60722770  0.99900539     0.43900
N311        N  0.60791378  0.62267245  0.99860699    -0.33700
N312        N  0.63183599  0.59825710  0.99775535    -0.27900
C313        C  0.61638537  0.56723292  0.99668200    -0.04000
C314        C  0.58130434  0.57258436  0.99656987     0.08200
C315        C  0.57672083  0.60781507  0.99801097     0.02000
H316        H  0.62971071  0.54266426  0.99666915     0.09600
H317        H  0.55252876  0.62165155  0.99933660     0.08700
N318        N  0.73466841  0.62495239  0.00076739    -0.35100
N319        N  0.74209761  0.65814711  0.00310344    -0.27300
C320        C  0.77633332  0.66187922  0.00490483    -0.02600
C321        C  0.79138984  0.62950435  0.00368544     0.06100
C322        C  0.76418618  0.60660245  0.00082200     0.04100
H323        H  0.78929965  0.68648610  0.00695980     0.09200
H324        H  0.76563864  0.57872145  0.99980867     0.08100
N325        N  0.98453737  0.73084415  0.65907805    -0.26300
N326        N  0.98648237  0.72192253  0.62621091    -0.34200
C327        C  0.99048465  0.75054740  0.60682814     0.02000
C328        C  0.99143372  0.77880115  0.62875961     0.08100
C329        C  0.98738372  0.76526473  0.66162956    -0.05000
H330        H  0.99394567  0.75059823  0.57908734     0.08700
H331        H  0.98718022  0.77932979  0.68577821     0.09900
Cu332      Cu  0.98697715  0.67078649  0.61087364     0.44200
Cu333      Cu  0.98183780  0.69563782  0.69919751     0.42000
Cu334      Cu  0.99758674  0.60577471  0.67933593     0.43900
N335        N  0.99204810  0.61827589  0.60252294    -0.33700
N336        N  0.99775269  0.59494653  0.62685633    -0.27900
C337        C  0.00142501  0.56376283  0.61191946    -0.04000
C338        C  0.99725258  0.56784861  0.57676265     0.08200
C339        C  0.99122130  0.60250993  0.57165372     0.02000
H340        H  0.00579506  0.53985380  0.62571232     0.09600
H341        H  0.98694551  0.61544027  0.54725863     0.08700
N342        N  0.99257883  0.62450113  0.72928647    -0.35100
N343        N  0.98661270  0.65740161  0.73621381    -0.27300
C344        C  0.98686847  0.66200428  0.77056408    -0.02600
C345        C  0.99326088  0.63051100  0.78612673     0.06100
C346        C  0.99649368  0.60718437  0.75919961     0.04100
H347        H  0.98351882  0.68669573  0.78322895     0.09200
H348        H  0.00280671  0.58003505  0.76110528     0.08100
N349        N  0.73239181  0.01056314  0.65820654    -0.27500
N350        N  0.72487802  0.01525319  0.62530350    -0.34200
C351        C  0.75380185  0.01129030  0.60634875     0.02000
C352        C  0.78072185  0.00352274  0.62855512     0.08100
C353        C  0.76603302  0.00354106  0.66119033    -0.05000
H354        H  0.75490846  0.01313204  0.57848873     0.08700
H355        H  0.77881450  0.99905333  0.68555170     0.09900
Cu356      Cu  0.67494462  0.02516974  0.60900450     0.44200
Cu357      Cu  0.69689787  0.01240034  0.69796599     0.42000
Cu358      Cu  0.60842397  0.02439356  0.67843393     0.43900
N359        N  0.62222707  0.02955669  0.60101723    -0.33700
N360        N  0.59851510  0.02862721  0.62570808    -0.27900
C361        C  0.56719407  0.02831373  0.61101145    -0.04000
C362        C  0.57138915  0.02963900  0.57561675     0.08200
C363        C  0.60649473  0.03015092  0.57010998     0.02000
H364        H  0.54319210  0.02577047  0.62503400     0.09600
H365        H  0.61967265  0.02897296  0.54545234     0.08700
N366        N  0.62583778  0.01643476  0.72865120    -0.35100
N367        N  0.65882560  0.01190347  0.73528559    -0.27300
C368        C  0.66289140  0.00588046  0.76914092    -0.02600
C369        C  0.63087438  0.00640032  0.78496690     0.06100
C370        C  0.60789844  0.01347240  0.75842436     0.04100
H371        H  0.68754148  0.00154399  0.78128463     0.09200
H372        H  0.58019103  0.01535936  0.76037711     0.08100
O373        O  0.64620385  0.94686378  0.00451037    -0.72000
O374        O  0.64743036  0.04896295  0.99642603    -0.72900
O375        O  0.64789504  0.00124327  0.05181212    -0.61600
O376        O  0.64511583  0.99409064  0.94890992    -0.70000
O377        O  0.58812219  0.99715628  0.94998984    -0.69500
O378        O  0.59088747  0.00133472  0.05436105    -0.60800
O379        O  0.59050355  0.05142724  0.99979376    -0.73300
O380        O  0.58913223  0.94658401  0.00473567    -0.72100
Cu381      Cu  0.64847870  0.99780920  0.00034576     1.04600
Cu382      Cu  0.58751077  0.99915407  0.00227151     1.04300
C383        C  0.61788427  0.93040831  0.00629472     0.94200
C384        C  0.61962260  0.06651434  0.99658551     0.93400
C385        C  0.62008018  0.00148637  0.06949784     0.85500
C386        C  0.61637127  0.99503249  0.93304000     0.91800
O387        O  0.99226358  0.04684954  0.58406552    -0.72000
O388        O  0.99872072  0.94240447  0.58089918    -0.72900
O389        O  0.94376414  0.99218091  0.58100913    -0.61600
O390        O  0.04802842  0.99791243  0.58438029    -0.70000
O391        O  0.04503425  0.99705990  0.64151163    -0.69500
O392        O  0.94314542  0.98842071  0.63818976    -0.60800
O393        O  0.99866108  0.94165565  0.63819132    -0.73300
O394        O  0.98906056  0.04393983  0.64116333    -0.72100
Cu395      Cu  0.99587143  0.99482999  0.58042140     1.04600
Cu396      Cu  0.99399155  0.99268380  0.64157138     1.04300
C397        C  0.98844844  0.06167923  0.61336999     0.94200
C398        C  0.99982703  0.92566657  0.60938784     0.93400
C399        C  0.92714406  0.98966704  0.60950562     0.85500
C400        C  0.06292324  0.99860914  0.61385044     0.91800
O401        O  0.00839719  0.58643907  0.05388745    -0.72000
O402        O  0.00590321  0.58644712  0.94950185    -0.72900
O403        O  0.05910881  0.58796057  0.00008814    -0.61600
O404        O  0.95518925  0.58490054  0.00288538    -0.70000
O405        O  0.95439883  0.64223330  0.00301979    -0.69500
O406        O  0.05666791  0.64513024  0.00125956    -0.60800
O407        O  0.00518237  0.64371985  0.95050458    -0.73300
O408        O  0.00577733  0.64367280  0.05338693    -0.72100
Cu409      Cu  0.00724085  0.58431053  0.00158233     1.04600
Cu410      Cu  0.00547031  0.64555427  0.00198560     1.04300
C411        C  0.00691035  0.61525435  0.07002866     0.94200
C412        C  0.00543917  0.61539572  0.93362387     0.93400
C413        C  0.07424066  0.61726642  0.00037745     0.85500
C414        C  0.93854862  0.61341602  0.00373334     0.91800
C415        C  0.83663523  0.97398682  0.64097018     0.24600
C416        C  0.81741732  0.99672926  0.62020041    -0.23500
C417        C  0.83417724  0.01419272  0.59301112     0.19500
C418        C  0.86977341  0.01039381  0.58801661     0.24500
C419        C  0.88912960  0.98925470  0.61025028    -0.23500
C420        C  0.87204875  0.97048513  0.63618244     0.19400
F421        F  0.88982242  0.94904720  0.65743287    -0.13400
F422        F  0.82125447  0.95512125  0.66620726    -0.15800
F423        F  0.88560446  0.02927772  0.56306616    -0.15800
F424        F  0.81665366  0.03665915  0.57268036    -0.13400
C425        C  0.59368235  0.01531175  0.87571981     0.24600
C426        C  0.61644898  0.99446837  0.89479195    -0.23500
C427        C  0.64147259  0.97507570  0.87705387     0.19500
C428        C  0.64490867  0.97775145  0.84123046     0.24500
C429        C  0.62376527  0.00037541  0.82225319    -0.23500
C430        C  0.59739722  0.01837238  0.83974434     0.19400
F431        F  0.57651435  0.04049527  0.82245530    -0.13400
F432        F  0.56925777  0.03442781  0.89210177    -0.15800
F433        F  0.66904601  0.95803746  0.82514831    -0.15800
F434        F  0.66286329  0.95353661  0.89450193    -0.13400
C435        C  0.01789630  0.64822600  0.84268291     0.24600
C436        C  0.99875128  0.62438959  0.82334537    -0.23500
C437        C  0.98417043  0.59566846  0.84009319     0.19500
C438        C  0.98728994  0.59185077  0.87597570     0.24500
C439        C  0.00502556  0.61674723  0.89549276    -0.23500
C440        C  0.02101275  0.64445174  0.87834609     0.19400
F441        F  0.03986677  0.66793529  0.89614208    -0.13400
F442        F  0.03396332  0.67511897  0.82697543    -0.15800
F443        F  0.97148602  0.56486307  0.89177987    -0.15800
F444        F  0.96541503  0.57232626  0.82203985    -0.13400
C445        C  0.01804625  0.83579229  0.64173646     0.24600
C446        C  0.99743778  0.81549833  0.62001993    -0.23500
C447        C  0.98118789  0.83114054  0.59156617     0.19500
C448        C  0.98342533  0.86700738  0.58660334     0.24500
C449        C  0.00201594  0.88753818  0.61001661    -0.23500
C450        C  0.02026781  0.87136850  0.63682140     0.19400
F451        F  0.03990005  0.89020389  0.65879525    -0.13400
F452        F  0.03594970  0.82120745  0.66803879    -0.15800
F453        F  0.96553731  0.88183032  0.56043112    -0.15800
F454        F  0.96134751  0.81214085  0.56994809    -0.13400
C455        C  0.84914654  0.64167439  0.02847322     0.24600
C456        C  0.82861394  0.62193674  0.00614472    -0.23500
C457        C  0.84433497  0.59670227  0.98511704     0.19500
C458        C  0.88024501  0.59265212  0.98520129     0.24500
C459        C  0.90071662  0.61387765  0.00619828    -0.23500
C460        C  0.88478894  0.63776911  0.02839277     0.19400
F461        F  0.90387985  0.65753186  0.05004006    -0.13400
F462        F  0.83469970  0.66486139  0.05051691    -0.15800
F463        F  0.89509437  0.56957100  0.96331527    -0.15800
F464        F  0.82523590  0.57745526  0.96305477    -0.13400
C465        C  0.65113359  0.84228592  0.03111979     0.24600
C466        C  0.62938039  0.82015612  0.01247902    -0.23500
C467        C  0.60123795  0.83448086  0.99454701     0.19500
C468        C  0.59625002  0.87040785  0.99370643     0.24500
C469        C  0.61943533  0.89247503  0.01057619    -0.23500
C470        C  0.64631018  0.87795797  0.03005630     0.19400
F471        F  0.66820603  0.89843039  0.04806656    -0.13400
F472        F  0.67722523  0.82945188  0.05053052    -0.15800
F473        F  0.57005784  0.88363869  0.97472010    -0.15800
F474        F  0.57973263  0.81399726  0.97615705    -0.13400
C475        C  0.84265406  0.97773441  0.35463339     0.24600
C476        C  0.82261786  0.99715736  0.37789189    -0.23500
C477        C  0.83888002  0.01416947  0.40546385     0.19500
C478        C  0.87482582  0.01276117  0.40888908     0.24500
C479        C  0.89487546  0.99426528  0.38477977    -0.23500
C480        C  0.87830294  0.97630583  0.35802253     0.19400
F481        F  0.89667867  0.95726085  0.33493309    -0.13400
F482        F  0.82769068  0.95988215  0.32851416    -0.15800
F483        F  0.89009348  0.03100986  0.43453557    -0.15800
F484        F  0.82022949  0.03370976  0.42786636    -0.13400
C485        C  0.59711219  0.01667563  0.12869305     0.24600
C486        C  0.62227524  0.00087573  0.10768072    -0.23500
C487        C  0.65022243  0.98412116  0.12347806     0.19500
C488        C  0.65358141  0.98397321  0.15931076     0.24500
C489        C  0.62938239  0.00106822  0.18039103    -0.23500
C490        C  0.60071455  0.01689074  0.16478622     0.19400
F491        F  0.57698195  0.03385386  0.18425645    -0.13400
F492        F  0.56980619  0.03310558  0.11430296    -0.15800
F493        F  0.68038534  0.96643660  0.17335025    -0.15800
F494        F  0.67420318  0.96721646  0.10421439    -0.13400
C495        C  0.02405874  0.83464152  0.40555422     0.24600
C496        C  0.00803193  0.81750513  0.37784827    -0.23500
C497        C  0.98775358  0.83689101  0.35479901     0.19500
C498        C  0.98528871  0.87265411  0.35799673     0.24500
C499        C  0.00254708  0.89003044  0.38462342    -0.23500
C500        C  0.02121073  0.87065822  0.40899577     0.19400
F501        F  0.03818558  0.88671383  0.43502203    -0.13400
F502        F  0.04389945  0.81689307  0.42824864    -0.15800
F503        F  0.96575818  0.89035444  0.33494426    -0.15800
F504        F  0.96988610  0.82127133  0.32912294    -0.13400
C505        C  0.98638726  0.64473000  0.16080609     0.24600
C506        C  0.00678242  0.62247835  0.18096016    -0.23500
C507        C  0.02580328  0.59624584  0.16438609     0.19500
C508        C  0.02527810  0.59312711  0.12826071     0.24500
C509        C  0.00591514  0.61632885  0.10819574    -0.23500
C510        C  0.98614396  0.64182771  0.12488772     0.19400
F511        F  0.96626658  0.66394673  0.10637596    -0.13400
F512        F  0.96636669  0.66930979  0.17585034    -0.15800
F513        F  0.04511427  0.56864344  0.11283923    -0.15800
F514        F  0.04636936  0.57483907  0.18290302    -0.13400
C515        C  0.01726671  0.12328403  0.40299298     0.24600
C516        C  0.99685948  0.10251827  0.38148786    -0.23500
C517        C  0.97555685  0.11830659  0.35684247     0.19500
C518        C  0.97572047  0.15407896  0.35268591     0.24500
C519        C  0.99751866  0.17484362  0.37283330    -0.23500
C520        C  0.01773166  0.15921038  0.39859038     0.19400
F521        F  0.03940321  0.17839032  0.41815959    -0.13400
F522        F  0.03821613  0.10867952  0.42689604    -0.15800
F523        F  0.95433394  0.16837828  0.32897589    -0.15800
F524        F  0.95438262  0.09902994  0.33677035    -0.13400
C525        C  0.99277548  0.40219573  0.16053865     0.24600
C526        C  0.00846642  0.37323511  0.17597569    -0.23500
C527        C  0.02672075  0.34987480  0.15484403     0.19500
C528        C  0.02716076  0.35389652  0.11909415     0.24500
C529        C  0.00997277  0.38174875  0.10347573    -0.23500
C530        C  0.99372310  0.40652182  0.12455714     0.19400
F531        F  0.97711323  0.43385939  0.11028304    -0.13400
F532        F  0.97493452  0.42535386  0.17991827    -0.15800
F533        F  0.04449574  0.33030853  0.09968710    -0.15800
F534        F  0.04444136  0.32300359  0.16864990    -0.13400
C535        C  0.97666984  0.40057492  0.83588164     0.24600
C536        C  0.99098236  0.37157367  0.81910214    -0.23500
C537        C  0.01154382  0.34866104  0.83832240     0.19500
C538        C  0.01569190  0.35316067  0.87378787     0.24500
C539        C  0.99977069  0.38092294  0.89099374    -0.23500
C540        C  0.98113746  0.40526829  0.87155858     0.19400
F541        F  0.96567209  0.43253588  0.88732701    -0.13400
F542        F  0.95686112  0.42340740  0.81824952    -0.15800
F543        F  0.03541441  0.33015625  0.89136257    -0.15800
F544        F  0.02799387  0.32182435  0.82282446    -0.13400
C545        C  0.99505456  0.12237022  0.59041871     0.24600
C546        C  0.98255543  0.09945148  0.61574780    -0.23500
C547        C  0.96432821  0.11297133  0.64419226     0.19500
C548        C  0.96021934  0.14851927  0.64821582     0.24500
C549        C  0.97440513  0.17164530  0.62405181    -0.23500
C550        C  0.99114530  0.15819681  0.59461039     0.19400
F551        F  0.00514185  0.17963269  0.57067448    -0.13400
F552        F  0.01223037  0.11025209  0.56230432    -0.15800
F553        F  0.94182351  0.16022334  0.67572680    -0.15800
F554        F  0.94994310  0.09171996  0.66811483    -0.13400
C555        C  0.84785393  0.34757558  0.02240676     0.24600
C556        C  0.82628910  0.37273248  0.00770775    -0.23500
C557        C  0.84106858  0.40272207  0.99353160     0.19500
C558        C  0.87694048  0.40647237  0.99234847     0.24500
C559        C  0.89847443  0.38025192  0.00530757    -0.23500
C560        C  0.88347773  0.35124391  0.02117807     0.19400
F561        F  0.90331313  0.32625989  0.03566951    -0.13400
F562        F  0.83445683  0.31926011  0.03813566    -0.15800
F563        F  0.89053753  0.43488863  0.97699837    -0.15800
F564        F  0.82097944  0.42747492  0.97907212    -0.13400
C565        C  0.65311059  0.15382024  0.96931683     0.24600
C566        C  0.63090116  0.17659020  0.98682885    -0.23500
C567        C  0.60343327  0.16295926  0.00632119     0.19500
C568        C  0.59896160  0.12707537  0.00899910     0.24500
C569        C  0.62197033  0.10440007  0.99229604    -0.23500
C570        C  0.64873993  0.11822400  0.97204819     0.19400
F571        F  0.67072875  0.09719512  0.95453997    -0.13400
F572        F  0.67904170  0.16600142  0.94913976    -0.15800
F573        F  0.57326161  0.11456643  0.02925467    -0.15800
F574        F  0.58203885  0.18423350  0.02421795    -0.13400
C575        C  0.15897442  0.01040931  0.34797758     0.24600
C576        C  0.17885189  0.99154669  0.37174279    -0.23500
C577        C  0.16246773  0.97631707  0.40039204     0.19500
C578        C  0.12670600  0.97904800  0.40459476     0.24500
C579        C  0.10678467  0.99702727  0.38017274    -0.23500
C580        C  0.12338538  0.01308368  0.35212862     0.19400
F581        F  0.10514181  0.03161640  0.32867342    -0.13400
F582        F  0.17400061  0.02672261  0.32080179    -0.15800
F583        F  0.11141457  0.96258179  0.43152374    -0.15800
F584        F  0.18077506  0.95727300  0.42334526    -0.13400
C585        C  0.40560775  0.98131777  0.12462857     0.24600
C586        C  0.38141487  0.00113957  0.10622047    -0.23500
C587        C  0.35557825  0.01888579  0.12453378     0.19500
C588        C  0.35300399  0.01576041  0.16030773     0.24500
C589        C  0.37603211  0.99461050  0.17861950    -0.23500
C590        C  0.40293832  0.97809991  0.16065766     0.19400
F591        F  0.42535515  0.95729009  0.17765081    -0.13400
F592        F  0.43054282  0.96347238  0.10760085    -0.15800
F593        F  0.32784798  0.03353720  0.17709751    -0.15800
F594        F  0.33263150  0.03931948  0.10775240    -0.13400
C595        C  0.34618808  0.99563673  0.87656979     0.24600
C596        C  0.37548775  0.00845519  0.89347198    -0.23500
C597        C  0.40119711  0.02494180  0.87371437     0.19500
C598        C  0.39691646  0.02962614  0.83800233     0.24500
C599        C  0.36685571  0.01798028  0.82153483    -0.23500
C600        C  0.34200563  0.00021495  0.84110535     0.19400
F601        F  0.31367169  0.98669050  0.82584619    -0.13400
F602        F  0.32140803  0.97842376  0.89437277    -0.15800
F603        F  0.42138834  0.04696404  0.81991210    -0.15800
F604        F  0.42966167  0.03801194  0.88913826    -0.13400
C605        C  0.11747545  0.99109279  0.64735274     0.24600
C606        C  0.10097755  0.00166290  0.61676608    -0.23500
C607        C  0.12101002  0.01664867  0.59034386     0.19500
C608        C  0.15637250  0.02240419  0.59514510     0.24500
C609        C  0.17244884  0.01318623  0.62640330    -0.23500
C610        C  0.15261811  0.99677699  0.65210224     0.19400
F611        F  0.16723171  0.98558210  0.68187167    -0.13400
F612        F  0.09962722  0.97495298  0.67288996    -0.15800
F613        F  0.17445681  0.03845000  0.56977325    -0.15800
F614        F  0.10619152  0.02709838  0.56040763    -0.13400
C615        C  0.40569598  0.87636886  0.99491668     0.24600
C616        C  0.37674274  0.89727565  0.00187662    -0.23500
C617        C  0.34576777  0.88117405  0.01190595     0.19500
C618        C  0.34350904  0.84531870  0.01390229     0.24500
C619        C  0.37189630  0.82433632  0.00533837    -0.23500
C620        C  0.40326766  0.84025773  0.99659330     0.19400
F621        F  0.43129358  0.82097651  0.98830177    -0.13400
F622        F  0.43619597  0.89070609  0.98560963    -0.15800
F623        F  0.31340790  0.83124555  0.02484939    -0.15800
F624        F  0.31740192  0.90001930  0.02022901    -0.13400
C625        C  0.16849092  0.59673387  0.98288836     0.24600
C626        C  0.18449644  0.62689091  0.99508146    -0.23500
C627        C  0.16418644  0.65266139  0.01073643     0.19500
C628        C  0.12858020  0.64912759  0.01283433     0.24500
C629        C  0.11227694  0.61952427  0.99968472    -0.23500
C630        C  0.13264366  0.59306033  0.98516432     0.19400
F631        F  0.11781994  0.56429350  0.97185486    -0.13400
F632        F  0.18730580  0.57149398  0.96741190    -0.15800
F633        F  0.11010881  0.67476170  0.02813631    -0.15800
F634        F  0.17878794  0.68123192  0.02471548    -0.13400
C635        C  0.34935829  0.12675510  0.01526339     0.24600
C636        C  0.37937902  0.11002335  0.00340699    -0.23500
C637        C  0.40722266  0.13020508  0.99171124     0.19500
C638        C  0.40430126  0.16627123  0.99028247     0.24500
C639        C  0.37352844  0.18257381  0.00041317    -0.23500
C640        C  0.34649275  0.16253553  0.01373512     0.19400
F641        F  0.31716269  0.17760207  0.02562456    -0.13400
F642        F  0.32249240  0.10853595  0.02839482    -0.15800
F643        F  0.43084736  0.18504304  0.97734052    -0.15800
F644        F  0.43665833  0.11507957  0.98022262    -0.13400
C645        C  0.16521391  0.40571148  0.97638437     0.24600
C646        C  0.18193688  0.37762449  0.99211461    -0.23500
C647        C  0.16241117  0.35339344  0.01073365     0.19500
C648        C  0.12671702  0.35617623  0.01221662     0.24500
C649        C  0.10969926  0.38331233  0.99516955    -0.23500
C650        C  0.12926365  0.40855647  0.97789751     0.19400
F651        F  0.11355176  0.43494437  0.96105652    -0.13400
F652        F  0.18345852  0.42931436  0.95802045    -0.15800
F653        F  0.10877860  0.33229469  0.03059012    -0.15800
F654        F  0.17790764  0.32700032  0.02780494    -0.13400
loop_ 
_geom_bond_atom_site_label_1 
_geom_bond_atom_site_label_2 
_geom_bond_distance 
_geom_bond_site_symmetry_2 
_ccdc_geom_bond_type 
O1           Cu9   2.005       .  S
O1           C11   1.276   1_556  A
O2           Cu9   2.011       .  S
O2           C12   1.277       .  A
O3           Cu9   1.997       .  S
O3           C13   1.275   1_556  A
O4           Cu9   2.007       .  S
O4           C14   1.276       .  A
O5          Cu10   1.997       .  S
O5           C14   1.275   1_554  A
O6          Cu10   2.008       .  S
O6           C13   1.276       .  A
O7          Cu10   2.007       .  S
O7           C12   1.277   1_554  A
O8          Cu10   2.013       .  S
O8           C11   1.277       .  A
Cu9         Cu10   2.380   1_556  S
C11          C80   1.461       .  S
C12         C166   1.461       .  S
C13          C56   1.455       .  S
C14         C314   1.455       .  S
O15         Cu23   2.016       .  S
O15          C25   1.277   1_565  A
O16         Cu23   2.010       .  S
O16          C26   1.277   1_565  A
O17         Cu23   2.013       .  S
O17          C27   1.277   1_565  A
O18         Cu23   2.004       .  S
O18          C28   1.276   1_565  A
O19         Cu24   2.018       .  S
O19          C28   1.278       .  A
O20         Cu24   2.006       .  S
O20          C27   1.276       .  A
O21         Cu24   2.018       .  S
O21          C26   1.278       .  A
O22         Cu24   2.009       .  S
O22          C25   1.277       .  A
Cu23        Cu24   2.379   1_565  S
C25         C276   1.463       .  S
C26         C104   1.465       .  S
C27         C142   1.461   1_545  S
C28         C362   1.462       .  S
O29         Cu37   2.006       .  S
O29          C39   1.277   1_455  A
O30         Cu37   2.026       .  S
O30          C40   1.279       .  A
O31         Cu37   2.005       .  S
O31          C41   1.276   1_455  A
O32         Cu37   2.004       .  S
O32          C42   1.276       .  A
O33         Cu38   2.003       .  S
O33          C42   1.276   1_655  A
O34         Cu38   2.003       .  S
O34          C41   1.276       .  A
O35         Cu38   2.000       .  S
O35          C40   1.275   1_655  A
O36         Cu38   2.015       .  S
O36          C39   1.277       .  A
Cu37        Cu38   2.380   1_455  S
C39         C190   1.462       .  S
C40         C252   1.465       .  S
C41         C338   1.457       .  S
C42         C228   1.458       .  S
N43          N44   1.319       .  A
N43          C47   1.338       .  A
N43         Cu51   2.052       .  S
N44          C45   1.347   1_556  A
N44         Cu50   2.067   1_556  S
C45          C46   1.386   1_554  A
C45          H48   1.082       .  S
C46         C639   1.475   1_556  S
C46          C47   1.381       .  A
C47          H49   1.082       .  S
Cu50         N53   2.069       .  S
Cu51         N61   2.052       .  S
Cu52         N54   2.077   1_556  S
Cu52         N60   2.075       .  S
N53          N54   1.325       .  A
N53          C57   1.344       .  A
N54          C55   1.344       .  A
C55          C56   1.378       .  A
C55          H58   1.083   1_554  S
C56          C57   1.377       .  A
C57          H59   1.081       .  S
N60          N61   1.320       .  A
N60          C64   1.348       .  A
N61          C62   1.338       .  A
C62          C63   1.380       .  A
C62          H65   1.082       .  S
C63         C646   1.475       .  S
C63          C64   1.387       .  A
C64          H66   1.082       .  S
N67          N68   1.319       .  A
N67          C71   1.338       .  A
N67         Cu75   2.050       .  S
N68          C69   1.349       .  A
N68         Cu74   2.077       .  S
C69          C70   1.390       .  A
C69          H72   1.082   1_556  S
C70         C626   1.480       .  S
C70          C71   1.382       .  A
C71          H73   1.082       .  S
Cu74         N77   2.079   1_556  S
Cu75         N85   2.051       .  S
Cu76         N78   2.089       .  S
Cu76         N84   2.086       .  S
N77          N78   1.327       .  A
N77          C81   1.344       .  A
N78          C79   1.347       .  A
C79          C80   1.381       .  A
C79          H82   1.082       .  S
C80          C81   1.378       .  A
C81          H83   1.082       .  S
N84          N85   1.319   1_554  A
N84          C88   1.350       .  A
N85          C86   1.338       .  A
C86          C87   1.382   1_556  A
C86          H89   1.081       .  S
C87         C619   1.485       .  S
C87          C88   1.392       .  A
C88          H90   1.081       .  S
N91          N92   1.320       .  A
N91          C95   1.341       .  A
N91         Cu99   2.069       .  S
N92          C93   1.348       .  A
N92         Cu98   2.075       .  S
C93          C94   1.388       .  A
C93          H96   1.082       .  S
C94         C599   1.483       .  S
C94          C95   1.385       .  A
C95          H97   1.082       .  S
Cu98        N101   2.076       .  S
Cu99        N109   2.069       .  S
Cu100       N102   2.094       .  S
Cu100       N108   2.092       .  S
N101        N102   1.325       .  A
N101        C105   1.345       .  A
N102        C103   1.348       .  A
C103        C104   1.383       .  A
C103        H106   1.082       .  S
C104        C105   1.378       .  A
C105        H107   1.082       .  S
N108        N109   1.321       .  A
N108        C112   1.350       .  A
N109        C110   1.342       .  A
C110        C111   1.386       .  A
C110        H113   1.082       .  S
C111        C609   1.490       .  S
C111        C112   1.391       .  A
C112        H114   1.081       .  S
O115       Cu123   1.988   1_565  S
O115        C125   1.276   1_554  A
O116       Cu123   1.982       .  S
O116        C126   1.275       .  A
O117       Cu123   1.996   1_556  S
O117        C127   1.277       .  A
O118       Cu123   1.993       .  S
O118        C128   1.277       .  A
O119       Cu124   2.021   1_554  S
O119        C128   1.279       .  A
O120       Cu124   2.025       .  S
O120        C127   1.279       .  A
O121       Cu124   2.022   1_554  S
O121        C126   1.279       .  A
O122       Cu124   2.024   1_565  S
O122        C125   1.280       .  A
Cu123      Cu124   2.369   1_554  S
C125        C616   1.487   1_556  S
C126        C636   1.480       .  S
C127        C596   1.483       .  S
C128        C586   1.477       .  S
N129        N130   1.320       .  A
N129        C133   1.339       .  A
N129       Cu137   2.055       .  S
N130        C131   1.350       .  A
N130       Cu136   2.080       .  S
C131        C132   1.388       .  A
C131        H134   1.082       .  S
C132        C589   1.478       .  S
C132        C133   1.380       .  A
C133        H135   1.082       .  S
Cu136       N139   2.082       .  S
Cu137       N147   2.056       .  S
Cu138       N140   2.083       .  S
Cu138       N146   2.081       .  S
N139        N140   1.326       .  A
N139        C143   1.345       .  A
N140        C141   1.346       .  A
C141        C142   1.379       .  A
C141        H144   1.082       .  S
C142        C143   1.379       .  A
C143        H145   1.082       .  S
N146        N147   1.320       .  A
N146        C150   1.348       .  A
N147        C148   1.340       .  A
C148        C149   1.382       .  A
C148        H151   1.082       .  S
C149        C576   1.481       .  S
C149        C150   1.389       .  A
C150        H152   1.082       .  S
N153        N154   1.320       .  A
N153        C157   1.340       .  A
N153       Cu161   2.057       .  S
N154        C155   1.348       .  A
N154       Cu160   2.078       .  S
C155        C156   1.388       .  A
C155        H158   1.082       .  S
C156        C566   1.480       .  S
C156        C157   1.382       .  A
C157        H159   1.082       .  S
Cu160       N163   2.079       .  S
Cu161       N171   2.056       .  S
Cu162       N164   2.079   1_554  S
Cu162       N170   2.077       .  S
N163        N164   1.326       .  A
N163        C167   1.346       .  A
N164        C165   1.345   1_556  A
C165        C166   1.379   1_554  A
C165        H168   1.082       .  S
C166        C167   1.379       .  A
C167        H169   1.082       .  S
N170        N171   1.320   1_554  A
N170        C174   1.349       .  A
N171        C172   1.339       .  A
C172        C173   1.382   1_556  A
C172        H175   1.082       .  S
C173        C556   1.479       .  S
C173        C174   1.388       .  A
C174        H176   1.082       .  S
N177        N178   1.320       .  A
N177        C181   1.340       .  A
N177       Cu185   2.064       .  S
N178        C179   1.349       .  A
N178       Cu184   2.082       .  S
C179        C180   1.390       .  A
C179        H182   1.081       .  S
C180        C549   1.485       .  S
C180        C181   1.384       .  A
C181        H183   1.082       .  S
Cu184       N187   2.084       .  S
Cu185       N195   2.064       .  S
Cu186       N188   2.077       .  S
Cu186       N194   2.076       .  S
N187        N188   1.326       .  A
N187        C191   1.346       .  A
N188        C189   1.345       .  A
C189        C190   1.379       .  A
C189        H192   1.082       .  S
C190        C191   1.381       .  A
C191        H193   1.082       .  S
N194        N195   1.320       .  A
N194        C198   1.349       .  A
N195        C196   1.340       .  A
C196        C197   1.385       .  A
C196        H199   1.081       .  S
C197        C536   1.485       .  S
C197        C198   1.389       .  A
C198        H200   1.081       .  S
O201       Cu209   2.027   1_554  S
O201        C211   1.280       .  A
O202       Cu209   2.026       .  S
O202        C212   1.280       .  A
O203       Cu209   2.017   1_654  S
O203        C213   1.278       .  A
O204       Cu209   2.021       .  S
O204        C214   1.279       .  A
O205       Cu210   1.984       .  S
O205        C214   1.275       .  A
O206       Cu210   1.990   1_654  S
O206        C213   1.276       .  A
O207       Cu210   1.991       .  S
O207        C212   1.276       .  A
O208       Cu210   1.984   1_554  S
O208        C211   1.275       .  A
Cu209      Cu210   2.372       .  S
C211        C529   1.478       .  S
C212        C539   1.480   1_455  S
C213        C559   1.478       .  S
C214        C649   1.475       .  S
N215        N216   1.319       .  A
N215        C219   1.340   1_455  A
N215       Cu223   2.055       .  S
N216        C217   1.347       .  A
N216       Cu222   2.073       .  S
C217        C218   1.388       .  A
C217        H220   1.082       .  S
C218        C519   1.480   1_455  S
C218        C219   1.383   1_455  A
C219        H221   1.082       .  S
Cu222       N225   2.074       .  S
Cu223       N233   2.055       .  S
Cu224       N226   2.077       .  S
Cu224       N232   2.076       .  S
N225        N226   1.326   1_455  A
N225        C229   1.344       .  A
N226        C227   1.345       .  A
C227        C228   1.379   1_655  A
C227        H230   1.082       .  S
C228        C229   1.378       .  A
C229        H231   1.082       .  S
N232        N233   1.319   1_655  A
N232        C236   1.348   1_655  A
N233        C234   1.338       .  A
C234        C235   1.384       .  A
C234        H237   1.081       .  S
C235        C526   1.484       .  S
C235        C236   1.390       .  A
C236        H238   1.081       .  S
N239        N240   1.320       .  A
N239        C243   1.340       .  A
N239       Cu247   2.054       .  S
N240        C241   1.350       .  A
N240       Cu246   2.087       .  S
C241        C242   1.391       .  A
C241        H244   1.082       .  S
C242        C506   1.483       .  S
C242        C243   1.382       .  A
C243        H245   1.082       .  S
Cu246       N249   2.089       .  S
Cu247       N257   2.054       .  S
Cu248       N250   2.089       .  S
Cu248       N256   2.087       .  S
N249        N250   1.326       .  A
N249        C253   1.346       .  A
N250        C251   1.347       .  A
C251        C252   1.381       .  A
C251        H254   1.082       .  S
C252        C253   1.381       .  A
C253        H255   1.082       .  S
N256        N257   1.319       .  A
N256        C260   1.351       .  A
N257        C258   1.339       .  A
C258        C259   1.383       .  A
C258        H261   1.081       .  S
C259        C496   1.485       .  S
C259        C260   1.392       .  A
C260        H262   1.081       .  S
N263        N264   1.321       .  A
N263        C267   1.339       .  A
N263       Cu271   2.057       .  S
N264        C265   1.350   1_545  A
N264       Cu270   2.085   1_545  S
C265        C266   1.388   1_565  A
C265        H268   1.082       .  S
C266        C476   1.479   1_545  S
C266        C267   1.381       .  A
C267        H269   1.082       .  S
Cu270       N273   2.087       .  S
Cu271       N281   2.056       .  S
Cu272       N274   2.082       .  S
Cu272       N280   2.080       .  S
N273        N274   1.326   1_565  A
N273        C277   1.347       .  A
N274        C275   1.345       .  A
C275        C276   1.379       .  A
C275        H278   1.082       .  S
C276        C277   1.381   1_545  A
C277        H279   1.082       .  S
N280        N281   1.319       .  A
N280        C284   1.349       .  A
N281        C282   1.339       .  A
C282        C283   1.383       .  A
C282        H285   1.082       .  S
C283        C489   1.484       .  S
C283        C284   1.390       .  A
C284        H286   1.082       .  S
O287       Cu295   1.995       .  S
O287        C297   1.277       .  A
O288       Cu295   1.994   1_645  S
O288        C298   1.276       .  A
O289       Cu295   1.994       .  S
O289        C299   1.276       .  A
O290       Cu295   1.985   1_655  S
O290        C300   1.275       .  A
O291       Cu296   2.030   1_655  S
O291        C300   1.280       .  A
O292       Cu296   2.022       .  S
O292        C299   1.279       .  A
O293       Cu296   2.021   1_545  S
O293        C298   1.279   1_455  A
O294       Cu296   2.023       .  S
O294        C297   1.279       .  A
Cu295      Cu296   2.372       .  S
C297        C499   1.479       .  S
C298        C516   1.475       .  S
C299        C579   1.479       .  S
C300        C479   1.479       .  S
N301        N302   1.320       .  A
N301        C305   1.342       .  A
N301       Cu309   2.069       .  S
N302        C303   1.347       .  A
N302       Cu308   2.070       .  S
C303        C304   1.388       .  A
C303        H306   1.081       .  S
C304        C466   1.484       .  S
C304        C305   1.386       .  A
C305        H307   1.082       .  S
Cu308       N311   2.071   1_554  S
Cu309       N319   2.069       .  S
Cu310       N312   2.074       .  S
Cu310       N318   2.073   1_556  S
N311        N312   1.325       .  A
N311        C315   1.343       .  A
N312        C313   1.345       .  A
C313        C314   1.379       .  A
C313        H316   1.082       .  S
C314        C315   1.377       .  A
C315        H317   1.082       .  S
N318        N319   1.321       .  A
N318        C322   1.348       .  A
N319        C320   1.341       .  A
C320        C321   1.383       .  A
C320        H323   1.082       .  S
C321        C456   1.479       .  S
C321        C322   1.386       .  A
C322        H324   1.082   1_554  S
N325        N326   1.320       .  A
N325        C329   1.341       .  A
N325       Cu333   2.069       .  S
N326        C327   1.348       .  A
N326       Cu332   2.067       .  S
C327        C328   1.385       .  A
C327        H330   1.082       .  S
C328        C446   1.480       .  S
C328        C329   1.385       .  A
C329        H331   1.082       .  S
Cu332       N335   2.068       .  S
Cu333       N343   2.069       .  S
Cu334       N336   2.074       .  S
Cu334       N342   2.073       .  S
N335        N336   1.324       .  A
N335        C339   1.342       .  A
N336        C337   1.346   1_655  A
C337        C338   1.380   1_455  A
C337        H340   1.082       .  S
C338        C339   1.377       .  A
C339        H341   1.082       .  S
N342        N343   1.322       .  A
N342        C346   1.347       .  A
N343        C344   1.342       .  A
C344        C345   1.383       .  A
C344        H347   1.082       .  S
C345        C436   1.476       .  S
C345        C346   1.384       .  A
C346        H348   1.082   1_655  S
N349        N350   1.320       .  A
N349        C353   1.340       .  A
N349       Cu357   2.064       .  S
N350        C351   1.348       .  A
N350       Cu356   2.078       .  S
C351        C352   1.389       .  A
C351        H354   1.082       .  S
C352        C416   1.484   1_545  S
C352        C353   1.384       .  A
C353        H355   1.081   1_545  S
Cu356       N359   2.080       .  S
Cu357       N367   2.064       .  S
Cu358       N360   2.085       .  S
Cu358       N366   2.084       .  S
N359        N360   1.326       .  A
N359        C363   1.346       .  A
N360        C361   1.346       .  A
C361        C362   1.380       .  A
C361        H364   1.082       .  S
C362        C363   1.380       .  A
C363        H365   1.082       .  S
N366        N367   1.320       .  A
N366        C370   1.350       .  A
N367        C368   1.341       .  A
C368        C369   1.385       .  A
C368        H371   1.082       .  S
C369        C429   1.487       .  S
C369        C370   1.391       .  A
C370        H372   1.081       .  S
O373       Cu381   1.982       .  S
O373        C383   1.275       .  A
O374       Cu381   1.987   1_546  S
O374        C384   1.275       .  A
O375       Cu381   1.997   1_545  S
O375        C385   1.277       .  A
O376       Cu381   2.001   1_556  S
O376        C386   1.277       .  A
O377       Cu382   2.025   1_556  S
O377        C386   1.279       .  A
O378       Cu382   2.023   1_545  S
O378        C385   1.279       .  A
O379       Cu382   2.030   1_546  S
O379        C384   1.280       .  A
O380       Cu382   2.039       .  S
O380        C383   1.282       .  A
Cu381      Cu382   2.371       .  S
C383        C469   1.479       .  S
C384        C569   1.479       .  S
C385        C486   1.481       .  S
C386        C426   1.481       .  S
O387       Cu395   2.024   1_545  S
O387        C397   1.279       .  A
O388       Cu395   2.033       .  S
O388        C398   1.280       .  A
O389       Cu395   2.028       .  S
O389        C399   1.280       .  A
O390       Cu395   2.037   1_455  S
O390        C400   1.282       .  A
O391       Cu396   1.991   1_455  S
O391        C400   1.276       .  A
O392       Cu396   1.988       .  S
O392        C399   1.276       .  A
O393       Cu396   1.988       .  S
O393        C398   1.276       .  A
O394       Cu396   1.994   1_545  S
O394        C397   1.277       .  A
Cu395      Cu396   2.369       .  S
C397        C546   1.483       .  S
C398        C449   1.479   1_655  S
C399        C419   1.478       .  S
C400        C606   1.489   1_565  S
O401       Cu409   2.027       .  S
O401        C411   1.280       .  A
O402       Cu409   2.019   1_556  S
O402        C412   1.279       .  A
O403       Cu409   2.022       .  S
O403        C413   1.279       .  A
O404       Cu409   2.023   1_655  S
O404        C414   1.279       .  A
O405       Cu410   1.989   1_655  S
O405        C414   1.276       .  A
O406       Cu410   1.990       .  S
O406        C413   1.276       .  A
O407       Cu410   1.994   1_556  S
O407        C412   1.277       .  A
O408       Cu410   1.991       .  S
O408        C411   1.276       .  A
Cu409      Cu410   2.373       .  S
C411        C509   1.478       .  S
C412        C439   1.477       .  S
C413        C629   1.481   1_554  S
C414        C459   1.473       .  S
C415        C416   1.408       .  A
C415        C420   1.394       .  A
C415        F422   1.358       .  S
C416        C417   1.409   1_565  A
C417        C418   1.404       .  A
C417        F424   1.357       .  S
C418        C419   1.407   1_545  A
C418        F423   1.358       .  S
C419        C420   1.405       .  A
C420        F421   1.358       .  S
C425        C426   1.408   1_545  A
C425        C430   1.405       .  A
C425        F432   1.358       .  S
C426        C427   1.405       .  A
C427        C428   1.397       .  A
C427        F434   1.358       .  S
C428        C429   1.409   1_565  A
C428        F433   1.357       .  S
C429        C430   1.409       .  A
C430        F431   1.357       .  S
C435        C436   1.405   1_455  A
C435        C440   1.394       .  A
C435        F442   1.358       .  S
C436        C437   1.407       .  A
C437        C438   1.403       .  A
C437        F444   1.358       .  S
C438        C439   1.408   1_655  A
C438        F443   1.358       .  S
C439        C440   1.406       .  A
C440        F441   1.358       .  S
C445        C446   1.405   1_455  A
C445        C450   1.394       .  A
C445        F452   1.358       .  S
C446        C447   1.408       .  A
C447        C448   1.405       .  A
C447        F454   1.358       .  S
C448        C449   1.408   1_655  A
C448        F453   1.358       .  S
C449        C450   1.406       .  A
C450        F451   1.358       .  S
C455        C456   1.406       .  A
C455        C460   1.393       .  A
C455        F462   1.358       .  S
C456        C457   1.409   1_554  A
C457        C458   1.404       .  A
C457        F464   1.357       .  S
C458        C459   1.406   1_556  A
C458        F463   1.358       .  S
C459        C460   1.404       .  A
C460        F461   1.358       .  S
C465        C466   1.406       .  A
C465        C470   1.394       .  A
C465        F472   1.358       .  S
C466        C467   1.410   1_554  A
C467        C468   1.405       .  A
C467        F474   1.357       .  S
C468        C469   1.406   1_556  A
C468        F473   1.357       .  S
C469        C470   1.407       .  A
C470        F471   1.359       .  S
C475        C476   1.405       .  A
C475        C480   1.393       .  A
C475        F482   1.358       .  S
C476        C477   1.407   1_565  A
C477        C478   1.405       .  A
C477        F484   1.357       .  S
C478        C479   1.408   1_545  A
C478        F483   1.358       .  S
C479        C480   1.406       .  A
C480        F481   1.359       .  S
C485        C486   1.408       .  A
C485        C490   1.405       .  A
C485        F492   1.358       .  S
C486        C487   1.406   1_545  A
C487        C488   1.394       .  A
C487        F494   1.358       .  S
C488        C489   1.407   1_565  A
C488        F493   1.358       .  S
C489        C490   1.409       .  A
C490        F491   1.357       .  S
C495        C496   1.409       .  A
C495        C500   1.405       .  A
C495        F502   1.357       .  S
C496        C497   1.409   1_455  A
C497        C498   1.393       .  A
C497        F504   1.357       .  S
C498        C499   1.404   1_655  A
C498        F503   1.359       .  S
C499        C500   1.408       .  A
C500        F501   1.358       .  S
C505        C506   1.408   1_655  A
C505        C510   1.395       .  A
C505        F512   1.358       .  S
C506        C507   1.408       .  A
C507        C508   1.404       .  A
C507        F514   1.357       .  S
C508        C509   1.407       .  A
C508        F513   1.358       .  S
C509        C510   1.406   1_455  A
C510        F511   1.359       .  S
C515        C516   1.406   1_455  A
C515        C520   1.402       .  A
C515        F522   1.358       .  S
C516        C517   1.405       .  A
C517        C518   1.395       .  A
C517        F524   1.358       .  S
C518        C519   1.407       .  A
C518        F523   1.358       .  S
C519        C520   1.408   1_655  A
C520        F521   1.357       .  S
C525        C526   1.410   1_655  A
C525        C530   1.403       .  A
C525        F532   1.357       .  S
C526        C527   1.408       .  A
C527        C528   1.393       .  A
C527        F534   1.357       .  S
C528        C529   1.405       .  A
C528        F533   1.359       .  S
C529        C530   1.407   1_455  A
C530        F531   1.358       .  S
C535        C536   1.410       .  A
C535        C540   1.404       .  A
C535        F542   1.357       .  S
C536        C537   1.408   1_655  A
C537        C538   1.394       .  A
C537        F544   1.358       .  S
C538        C539   1.406   1_455  A
C538        F543   1.358       .  S
C539        C540   1.407       .  A
C540        F541   1.358       .  S
C545        C546   1.408       .  A
C545        C550   1.405       .  A
C545        F552   1.358   1_655  S
C546        C547   1.407       .  A
C547        C548   1.394       .  A
C547        F554   1.358       .  S
C548        C549   1.407       .  A
C548        F553   1.358       .  S
C549        C550   1.409       .  A
C550        F551   1.357   1_655  S
C555        C556   1.406       .  A
C555        C560   1.393       .  A
C555        F562   1.358       .  S
C556        C557   1.407   1_554  A
C557        C558   1.403       .  A
C557        F564   1.357       .  S
C558        C559   1.408   1_556  A
C558        F563   1.358       .  S
C559        C560   1.407       .  A
C560        F561   1.358       .  S
C565        C566   1.405       .  A
C565        C570   1.393       .  A
C565        F572   1.358       .  S
C566        C567   1.408   1_556  A
C567        C568   1.405       .  A
C567        F574   1.357       .  S
C568        C569   1.407   1_554  A
C568        F573   1.358       .  S
C569        C570   1.407       .  A
C570        F571   1.358       .  S
C575        C576   1.407   1_545  A
C575        C580   1.395       .  A
C575        F582   1.358       .  S
C576        C577   1.407       .  A
C577        C578   1.402       .  A
C577        F584   1.357       .  S
C578        C579   1.408       .  A
C578        F583   1.358       .  S
C579        C580   1.406   1_565  A
C580        F581   1.358       .  S
C585        C586   1.408   1_565  A
C585        C590   1.404       .  A
C585        F592   1.358       .  S
C586        C587   1.405       .  A
C587        C588   1.393       .  A
C587        F594   1.358       .  S
C588        C589   1.406   1_545  A
C588        F593   1.358       .  S
C589        C590   1.406       .  A
C590        F591   1.358       .  S
C595        C596   1.407   1_565  A
C595        C600   1.394   1_565  A
C595        F602   1.358       .  S
C596        C597   1.410       .  A
C597        C598   1.405       .  A
C597        F604   1.358       .  S
C598        C599   1.408       .  A
C598        F603   1.358       .  S
C599        C600   1.406       .  A
C600        F601   1.358   1_545  S
C605        C606   1.409   1_565  A
C605        C610   1.397       .  A
C605        F612   1.359       .  S
C606        C607   1.409       .  A
C607        C608   1.406       .  A
C607        F614   1.357       .  S
C608        C609   1.410       .  A
C608        F613   1.357       .  S
C609        C610   1.408   1_545  A
C610        F611   1.357       .  S
C615        C616   1.410   1_556  A
C615        C620   1.403       .  A
C615        F622   1.357       .  S
C616        C617   1.410       .  A
C617        C618   1.394       .  A
C617        F624   1.359       .  S
C618        C619   1.407       .  A
C618        F623   1.358       .  S
C619        C620   1.408   1_554  A
C620        F621   1.357       .  S
C625        C626   1.407       .  A
C625        C630   1.403       .  A
C625        F632   1.357       .  S
C626        C627   1.407   1_556  A
C627        C628   1.393       .  A
C627        F634   1.358       .  S
C628        C629   1.407   1_554  A
C628        F633   1.358       .  S
C629        C630   1.409       .  A
C630        F631   1.358       .  S
C635        C636   1.409       .  A
C635        C640   1.391       .  A
C635        F642   1.358       .  S
C636        C637   1.409   1_554  A
C637        C638   1.402       .  A
C637        F644   1.357       .  S
C638        C639   1.406   1_556  A
C638        F643   1.358       .  S
C639        C640   1.404       .  A
C640        F641   1.358       .  S
C645        C646   1.406       .  A
C645        C650   1.402       .  A
C645        F652   1.357       .  S
C646        C647   1.405   1_556  A
C647        C648   1.392       .  A
C647        F654   1.358       .  S
C648        C649   1.406   1_554  A
C648        F653   1.359       .  S
C649        C650   1.407       .  A
C650        F651   1.357       .  S
