geometry optimzed in LAMMPS
_audit_creation_date              2020-11-30 
_audit_creation_method            'lammps2cif' 
_symmetry_space_group_name_H-M    'P1' 
_symmetry_Int_Tables_number       1 
_symmetry_cell_setting            triclinic 
loop_ 
_symmetry_equiv_pos_as_xyz 
  x,y,z 
_cell_length_a                    31.18945419 
_cell_length_b                    39.11594470758606 
_cell_length_c                    27.399556185322457 
_cell_angle_alpha                 90.64470261822929 
_cell_angle_beta                  112.81613751793657 
_cell_angle_gamma                 90.12516007687938 
loop_ 
_atom_site_label 
_atom_site_type_symbol 
_atom_site_fract_x 
_atom_site_fract_y 
_atom_site_fract_z 
_atom_site_charge 
O1          O  0.00777686  0.49106771  0.08526498    -0.71800
O2          O  0.96997583  0.46337758  0.93245711    -0.72800
O3          O  0.05080078  0.45425710  0.02672157    -0.61400
O4          O  0.92713720  0.00064561  0.99054629    -0.69800
O5          O  0.95694050  0.04903830  0.97538592    -0.69400
O6          O  0.07996266  0.50273448  0.01089252    -0.60600
O7          O  0.99876908  0.01193028  0.91634022    -0.73200
O8          O  0.03730308  0.03957333  0.07010985    -0.71900
Cu9        Cu  0.98789792  0.47566338  0.00929867     1.04600
Cu10       Cu  0.01938276  0.02748758  0.99271901     1.04300
C11         C  0.02868172  0.01957238  0.10187089     0.94400
C12         C  0.97762274  0.48340599  0.90015578     0.93500
C13         C  0.08489497  0.47136095  0.02439912     0.85700
C14         C  0.92251887  0.03202288  0.97693362     0.91900
N15         N  0.63196756  0.16625284  0.95371843    -0.02400
C16         C  0.66457332  0.14212505  0.97746766     0.00200
C17         C  0.67284523  0.13990296  0.03056181    -0.22700
C18         C  0.64494447  0.16358771  0.04050881    -0.22900
C19         C  0.61999808  0.17924903  0.99303959     0.00100
H20         H  0.69770013  0.12353741  0.05934561     0.13900
H21         H  0.64257274  0.16853623  0.07833648     0.13900
N22         N  0.36729443  0.32883977  0.04243941    -0.02400
C23         C  0.33723238  0.35455685  0.01963170     0.00200
C24         C  0.33134241  0.35844168  0.96749110    -0.22700
C25         C  0.35833387  0.33413857  0.95716914    -0.22900
C26         C  0.38052593  0.31659809  0.00362899     0.00100
H27         H  0.30882490  0.37644300  0.93956870     0.13900
H28         H  0.36244048  0.33031059  0.92002730     0.13900
O29         O  0.50347496  0.26198312  0.58550385    -0.71800
O30         O  0.46250055  0.29052373  0.43288984    -0.72800
O31         O  0.42202554  0.25129294  0.49136960    -0.61400
O32         O  0.54374585  0.30090636  0.52722240    -0.69800
O33         O  0.57351226  0.25333109  0.50876680    -0.69400
O34         O  0.45253651  0.20392819  0.47337306    -0.60600
O35         O  0.49209614  0.24287177  0.41456345    -0.73200
O36         O  0.53336580  0.21443516  0.56728195    -0.71900
Cu37       Cu  0.48179765  0.27783667  0.50983048     1.04600
Cu38       Cu  0.51398026  0.22705053  0.49034995     1.04300
C39         C  0.52514627  0.23383411  0.60048071     0.94400
C40         C  0.47050735  0.27104185  0.39960234     0.93500
C41         C  0.41818099  0.21985722  0.47686082     0.85700
C42         C  0.57797572  0.28461057  0.52394514     0.91900
N43         N  0.14208441  0.06995643  0.46345438    -0.02400
C44         C  0.17820496  0.09166287  0.48780691     0.00200
C45         C  0.19038445  0.09212045  0.54184596    -0.22700
C46         C  0.16070806  0.06985718  0.55156920    -0.22900
C47         C  0.13098013  0.05705732  0.50298230     0.00100
H48         H  0.21784294  0.10711660  0.57098081     0.13900
H49         H  0.15949460  0.06479608  0.58977862     0.13900
N50         N  0.85815898  0.42870808  0.53962764    -0.02400
C51         C  0.82403047  0.40537295  0.51596558     0.00200
C52         C  0.81313150  0.40365932  0.46216394    -0.22700
C53         C  0.84157968  0.42682656  0.45194085    -0.22900
C54         C  0.86933688  0.44140333  0.50003957     0.00100
H55         H  0.78704650  0.38747508  0.43344677     0.13900
H56         H  0.84335581  0.43137676  0.41386720     0.13900
C57         C  0.04669538  0.00650127  0.52200409     0.30900
C58         C  0.02914769  0.98506775  0.55060881    -0.35500
C59         C  0.98100667  0.47962333  0.52879863     0.16900
C60         C  0.95214698  0.49418734  0.48195446     0.22700
C61         C  0.96968724  0.01578182  0.45344642    -0.33600
C62         C  0.01790095  0.02118489  0.47524013     0.16800
O63         O  0.09036468  0.01594463  0.53614732    -0.25600
C64         C  0.08982687  0.03656598  0.49766061     0.06600
C65         C  0.04555022  0.04102562  0.45883186    -0.30500
O66         O  0.90867660  0.48397420  0.46727755    -0.22300
C67         C  0.90954256  0.46305837  0.50560783    -0.02300
C68         C  0.95372648  0.45919707  0.54477992    -0.16700
H69         H  0.05151962  0.97337147  0.58725607     0.21300
H70         H  0.94736489  0.02726752  0.41658768     0.19600
H71         H  0.03489284  0.05786550  0.42517426     0.19600
H72         H  0.96465475  0.44215581  0.57820665     0.15400
C73         C  0.67327905  0.34049595  0.55591734     0.30900
C74         C  0.69621363  0.37231183  0.56550447    -0.35500
C75         C  0.73940702  0.37308093  0.56067338     0.16900
C76         C  0.75851715  0.34444763  0.54724713     0.22700
C77         C  0.73645401  0.31249749  0.53962589    -0.33600
C78         C  0.69332784  0.31180055  0.54415248     0.16800
O79         O  0.63025030  0.33471898  0.55169328    -0.25600
C80         C  0.62295747  0.30191264  0.53721337     0.06600
C81         C  0.66111503  0.28635913  0.53237339    -0.30500
O82         O  0.79403591  0.35193784  0.53466858    -0.22300
C83         C  0.79861252  0.38562457  0.54130576    -0.02300
C84         C  0.76590535  0.40018284  0.55795387    -0.16700
H85         H  0.68002059  0.39530012  0.57240362     0.21300
H86         H  0.75017640  0.29028835  0.52682931     0.19600
H87         H  0.66374527  0.26055659  0.51913662     0.19600
H88         H  0.75883463  0.42708590  0.56045769     0.15400
C89         C  0.32662296  0.16110518  0.44874510     0.30900
C90         C  0.30587306  0.12851532  0.44044214    -0.35500
C91         C  0.26260362  0.12634904  0.44483848     0.16900
C92         C  0.24144160  0.15438365  0.45677638     0.22700
C93         C  0.26157001  0.18704739  0.46363200    -0.33600
C94         C  0.30477228  0.18917327  0.45940293     0.16800
O95         O  0.36899309  0.16835393  0.45212063    -0.25600
C96         C  0.37415775  0.20147222  0.46492612     0.06600
C97         C  0.33523568  0.21579846  0.46969291    -0.30500
O98         O  0.20570567  0.14583005  0.46833296    -0.22300
C99         C  0.20312229  0.11203133  0.46259139    -0.02300
C100        C  0.23743362  0.09845527  0.44768514    -0.16700
H101        H  0.32355945  0.10609194  0.43435138     0.21300
H102        H  0.24617309  0.20885185  0.47518325     0.19600
H103        H  0.33097099  0.24161011  0.48168073     0.19600
H104        H  0.24614071  0.07179841  0.44613866     0.15400
C105        C  0.43557263  0.27676312  0.26137318     0.30900
C106        C  0.42705085  0.26493853  0.20973721    -0.35500
C107        C  0.40840294  0.28882426  0.16906994     0.16900
C108        C  0.39880063  0.32206937  0.17860781     0.22700
C109        C  0.40677730  0.33377539  0.23011246    -0.33600
C110        C  0.42540769  0.30989873  0.27074029     0.16800
O111        O  0.45325324  0.25887833  0.30528243    -0.25600
C112        C  0.45417178  0.28075239  0.34333068     0.06600
C113        C  0.43717866  0.31288824  0.32406745    -0.30500
O114        O  0.38273336  0.34034184  0.13508299    -0.22300
C115        C  0.38223421  0.31863463  0.09703771    -0.02300
C116        C  0.39718217  0.28599099  0.11577471    -0.16700
H117        H  0.43479710  0.23899503  0.20187143     0.21300
H118        H  0.39932408  0.35979226  0.23800471     0.19600
H119        H  0.43401135  0.33517720  0.34617526     0.19600
H120        H  0.39952098  0.26349798  0.09364451     0.15400
C121        C  0.45465655  0.25860161  0.97884165     0.30900
C122        C  0.46925538  0.23771580  0.94625559    -0.35500
C123        C  0.51595036  0.22770399  0.96765888     0.16900
C124        C  0.54597826  0.23748929  0.01782891     0.22700
C125        C  0.53141978  0.25846363  0.05038057    -0.33600
C126        C  0.48470814  0.26847131  0.02896190     0.16800
O127        O  0.41334687  0.27244399  0.96545770    -0.25600
C128        C  0.41648540  0.29114460  0.00764477     0.06600
C129        C  0.46029777  0.28974529  0.04846373    -0.30500
O130        O  0.58715538  0.22340841  0.03130158    -0.22300
C131        C  0.58392694  0.20462862  0.98912526    -0.02300
C132        C  0.54024798  0.20632326  0.94815593    -0.16700
H133        H  0.44581962  0.22990846  0.90686755     0.21300
H134        H  0.55483582  0.26623122  0.08980117     0.19600
H135        H  0.47331291  0.30427348  0.08523246     0.19600
H136        H  0.52709018  0.19181792  0.91137470     0.15400
C137        C  0.58716742  0.20611149  0.83088935     0.30900
C138        C  0.56772477  0.23266994  0.79497040    -0.35500
C139        C  0.55895609  0.22532625  0.74155714     0.16900
C140        C  0.56893294  0.19408924  0.72466499     0.22700
C141        C  0.58811060  0.16751378  0.76049082    -0.33600
C142        C  0.59661457  0.17479291  0.81376544     0.16800
O143        O  0.59827626  0.20731676  0.88263651    -0.25600
C144        C  0.61494645  0.17628453  0.89883812     0.06600
C145        C  0.61448853  0.15496374  0.85750471    -0.30500
O146        O  0.55842916  0.19287065  0.67309222    -0.22300
C147        C  0.54113368  0.22366867  0.65649255    -0.02300
C148        C  0.54057409  0.24490786  0.69741320    -0.16700
H149        H  0.55994760  0.25732901  0.80775663     0.21300
H150        H  0.59591119  0.14285263  0.74772359     0.19600
H151        H  0.62508453  0.12856503  0.85898419     0.19600
H152        H  0.52873699  0.27106390  0.69499314     0.15400
C153        C  0.05953395  0.02450071  0.23946358     0.30900
C154        C  0.06665603  0.01221962  0.29000417    -0.35500
C155        C  0.08842343  0.03493400  0.33260300     0.16900
C156        C  0.10201678  0.06756123  0.32592266     0.22700
C157        C  0.09496819  0.07980561  0.27542879    -0.33600
C158        C  0.07343955  0.05704643  0.23287622     0.16800
O159        O  0.04117233  0.00726589  0.19430434    -0.25600
C160        C  0.04354272  0.02899382  0.15832158     0.06600
C161        C  0.06323133  0.06038424  0.18008219    -0.30500
O162        O  0.12235364  0.08429679  0.37122076    -0.22300
C163        C  0.12151805  0.06221502  0.40746690    -0.02300
C164        C  0.10136371  0.03087378  0.38575223    -0.16700
H165        H  0.05649151  0.98658989  0.29577717     0.21300
H166        H  0.10606564  0.10517126  0.26978455     0.19200
H167        H  0.06982553  0.08222197  0.16001781     0.19600
H168        H  0.09766264  0.00818977  0.40604850     0.15400
C169        C  0.89756514  0.43365876  0.67703009     0.30900
C170        C  0.90617753  0.42196778  0.72821400    -0.35500
C171        C  0.92813345  0.44530057  0.76982972     0.16900
C172        C  0.94081958  0.47791655  0.76175341     0.22700
C173        C  0.93176859  0.48972295  0.71049777    -0.33600
C174        C  0.90976849  0.46639519  0.66886219     0.16800
O175        O  0.87776555  0.41604382  0.63246639    -0.25600
C176        C  0.87747674  0.43771978  0.59521733     0.06600
C177        C  0.89631431  0.46963662  0.61553832    -0.30500
O178        O  0.96076661  0.49547757  0.80641458    -0.22300
C179        C  0.96073950  0.47384583  0.84359030    -0.02300
C180        C  0.94079609  0.44227455  0.82306195    -0.16700
H181        H  0.89646289  0.39644348  0.73511668     0.21300
H182        H  0.94122104  0.51531251  0.70355255     0.19600
H183        H  0.89935181  0.49204840  0.59429855     0.19600
H184        H  0.93586620  0.42043100  0.84428732     0.15400
C185        C  0.18024875  0.41651177  0.05252550     0.30900
C186        C  0.20326826  0.38495253  0.06085325    -0.35500
C187        C  0.24716834  0.38496711  0.05774506     0.16900
C188        C  0.26676641  0.41404235  0.04671882     0.22700
C189        C  0.24435656  0.44570748  0.03981527    -0.33600
C190        C  0.20061320  0.44567905  0.04300837     0.16800
O191        O  0.13720310  0.42173469  0.04853639    -0.25600
C192        C  0.13006972  0.45469222  0.03650830     0.06600
C193        C  0.16845243  0.47088367  0.03290964    -0.30500
O194        O  0.30392292  0.40735382  0.03671365    -0.22300
C195        C  0.30907253  0.37372755  0.04271016    -0.02300
C196        C  0.27494692  0.35843665  0.05616521    -0.16700
H197        H  0.18696759  0.36166285  0.06634813     0.21300
H198        H  0.25869259  0.46835449  0.02928891     0.19600
H199        H  0.17138219  0.49701250  0.02188787     0.19600
H200        H  0.26828369  0.33138510  0.05776120     0.15400
C201        C  0.80855228  0.05619196  0.95531978     0.30900
C202        C  0.76496393  0.05250289  0.95830612    -0.35500
C203        C  0.73828134  0.08222514  0.95057622     0.16900
C204        C  0.75310550  0.11353481  0.94001556     0.22700
C205        C  0.79642223  0.11707610  0.93586110    -0.33600
C206        C  0.82344543  0.08734591  0.94431313     0.16800
O207        O  0.84092226  0.03254682  0.96694860    -0.25600
C208        C  0.87716889  0.04865567  0.96344515     0.06600
C209        C  0.86825602  0.08278173  0.94916388    -0.30500
O210        O  0.72592035  0.13878316  0.94252679    -0.22300
C211        C  0.69321953  0.12335651  0.95448201    -0.02300
C212        C  0.69916631  0.08821719  0.95974066    -0.16700
H213        H  0.75392750  0.02859012  0.96939249     0.21300
H214        H  0.80949515  0.14171843  0.93012048     0.19600
H215        H  0.89201966  0.10179374  0.94539449     0.19600
H216        H  0.68046422  0.07035155  0.97428393     0.15400
O217        O  0.00777676  0.99106778  0.08526494    -0.71800
O218        O  0.96997592  0.96337758  0.93245709    -0.72800
O219        O  0.05080078  0.95425704  0.02672161    -0.61400
O220        O  0.92713715  0.50064571  0.99054634    -0.69800
O221        O  0.95694048  0.54903837  0.97538593    -0.69400
O222        O  0.07996259  0.00273443  0.01089253    -0.60600
O223        O  0.99876893  0.51193028  0.91634020    -0.73200
O224        O  0.03730304  0.53957332  0.07010983    -0.71900
Cu225      Cu  0.98789793  0.97566334  0.00929866     1.04600
Cu226      Cu  0.01938275  0.52748762  0.99271899     1.04300
C227        C  0.02868178  0.51957232  0.10187091     0.94400
C228        C  0.97762286  0.98340600  0.90015578     0.93500
C229        C  0.08489493  0.97136091  0.02439914     0.85700
C230        C  0.92251884  0.53202296  0.97693365     0.91900
N231        N  0.63196751  0.66625281  0.95371844    -0.02400
C232        C  0.66457325  0.64212501  0.97746765     0.00200
C233        C  0.67284519  0.63990293  0.03056180    -0.22700
C234        C  0.64494446  0.66358767  0.04050883    -0.22900
C235        C  0.61999805  0.67924902  0.99303963     0.00100
H236        H  0.69770013  0.62353735  0.05934561     0.13900
H237        H  0.64257275  0.66853618  0.07833656     0.13900
N238        N  0.36729440  0.82883973  0.04243940    -0.02400
C239        C  0.33723240  0.85455688  0.01963176     0.00200
C240        C  0.33134244  0.85844175  0.96749118    -0.22700
C241        C  0.35833387  0.83413864  0.95716915    -0.22900
C242        C  0.38052591  0.81659813  0.00362901     0.00100
H243        H  0.30882495  0.87644315  0.93956881     0.13900
H244        H  0.36244043  0.83031065  0.92002733     0.13900
O245        O  0.50347508  0.76198313  0.58550385    -0.71800
O246        O  0.46250049  0.79052356  0.43288980    -0.72800
O247        O  0.42202556  0.75129294  0.49136964    -0.61400
O248        O  0.54374586  0.80090625  0.52722235    -0.69800
O249        O  0.57351233  0.75333098  0.50876683    -0.69400
O250        O  0.45253653  0.70392821  0.47337302    -0.60600
O251        O  0.49209628  0.74287169  0.41456346    -0.73200
O252        O  0.53336569  0.71443506  0.56728196    -0.71900
Cu253      Cu  0.48179769  0.77783658  0.50983046     1.04600
Cu254      Cu  0.51398031  0.72705044  0.49034995     1.04300
C255        C  0.52514624  0.73383408  0.60048071     0.94400
C256        C  0.47050740  0.77104174  0.39960233     0.93500
C257        C  0.41818102  0.71985722  0.47686081     0.85700
C258        C  0.57797576  0.78461046  0.52394513     0.91900
N259        N  0.14208436  0.56995651  0.46345438    -0.02400
C260        C  0.17820499  0.59166290  0.48780689     0.00200
C261        C  0.19038446  0.59212050  0.54184594    -0.22700
C262        C  0.16070803  0.56985729  0.55156920    -0.22900
C263        C  0.13098008  0.55705740  0.50298231     0.00100
H264        H  0.21784301  0.60711661  0.57098082     0.13900
H265        H  0.15949462  0.56479620  0.58977868     0.13900
N266        N  0.85815884  0.92870811  0.53962764    -0.02400
C267        C  0.82403037  0.90537295  0.51596555     0.00200
C268        C  0.81313143  0.90365934  0.46216390    -0.22700
C269        C  0.84157959  0.92682666  0.45194088    -0.22900
C270        C  0.86933671  0.94140345  0.50003961     0.00100
H271        H  0.78704660  0.88747502  0.43344674     0.13900
H272        H  0.84335583  0.93137685  0.41386732     0.13900
C273        C  0.04669539  0.50650130  0.52200408     0.30900
C274        C  0.02914771  0.48506777  0.55060876    -0.35500
C275        C  0.98100666  0.97962323  0.52879862     0.16900
C276        C  0.95214701  0.99418723  0.48195444     0.22700
C277        C  0.96968720  0.51578193  0.45344646    -0.33600
C278        C  0.01790093  0.52118497  0.47524017     0.16800
O279        O  0.09036472  0.51594458  0.53614726    -0.25600
C280        C  0.08982689  0.53656596  0.49766059     0.06600
C281        C  0.04555024  0.54102561  0.45883184    -0.30500
O282        O  0.90867657  0.98397423  0.46727762    -0.22300
C283        C  0.90954246  0.96305846  0.50560793    -0.02300
C284        C  0.95372639  0.95919706  0.54477995    -0.16700
H285        H  0.05151967  0.47337139  0.58725588     0.21300
H286        H  0.94736482  0.52726757  0.41658764     0.19600
H287        H  0.03489288  0.55786546  0.42517426     0.19600
H288        H  0.96465458  0.94215579  0.57820669     0.15400
C289        C  0.67327903  0.84049591  0.55591735     0.30900
C290        C  0.69621355  0.87231183  0.56550447    -0.35500
C291        C  0.73940697  0.87308090  0.56067335     0.16900
C292        C  0.75851711  0.84444763  0.54724715     0.22700
C293        C  0.73645400  0.81249746  0.53962590    -0.33600
C294        C  0.69332781  0.81180056  0.54415248     0.16800
O295        O  0.63025027  0.83471893  0.55169331    -0.25600
C296        C  0.62295748  0.80191258  0.53721336     0.06600
C297        C  0.66111505  0.78635910  0.53237336    -0.30500
O298        O  0.79403588  0.85193782  0.53466859    -0.22300
C299        C  0.79861245  0.88562456  0.54130574    -0.02300
C300        C  0.76590529  0.90018279  0.55795386    -0.16700
H301        H  0.68002054  0.89530004  0.57240363     0.21300
H302        H  0.75017636  0.79028837  0.52682936     0.19600
H303        H  0.66374535  0.76055661  0.51913656     0.19600
H304        H  0.75883460  0.92708587  0.56045769     0.15400
C305        C  0.32662299  0.66110520  0.44874508     0.30900
C306        C  0.30587309  0.62851535  0.44044212    -0.35500
C307        C  0.26260366  0.62634908  0.44483849     0.16900
C308        C  0.24144164  0.65438370  0.45677639     0.22700
C309        C  0.26157007  0.68704744  0.46363199    -0.33600
C310        C  0.30477233  0.68917330  0.45940291     0.16800
O311        O  0.36899315  0.66835392  0.45212066    -0.25600
C312        C  0.37415782  0.70147221  0.46492616     0.06600
C313        C  0.33523577  0.71579846  0.46969294    -0.30500
O314        O  0.20570571  0.64583008  0.46833296    -0.22300
C315        C  0.20312233  0.61203137  0.46259137    -0.02300
C316        C  0.23743367  0.59845533  0.44768514    -0.16700
H317        H  0.32355949  0.60609197  0.43435138     0.21300
H318        H  0.24617322  0.70885195  0.47518326     0.19600
H319        H  0.33097115  0.74161012  0.48168079     0.19600
H320        H  0.24614076  0.57179846  0.44613869     0.15400
C321        C  0.43557268  0.77676310  0.26137318     0.30900
C322        C  0.42705082  0.76493848  0.20973720    -0.35500
C323        C  0.40840294  0.78882422  0.16906994     0.16900
C324        C  0.39880069  0.82206935  0.17860782     0.22700
C325        C  0.40677729  0.83377534  0.23011246    -0.33600
C326        C  0.42540776  0.80989871  0.27074031     0.16800
O327        O  0.45325332  0.75887829  0.30528241    -0.25600
C328        C  0.45417190  0.78075233  0.34333070     0.06600
C329        C  0.43717878  0.81288820  0.32406749    -0.30500
O330        O  0.38273344  0.84034180  0.13508299    -0.22300
C331        C  0.38223418  0.81863459  0.09703770    -0.02300
C332        C  0.39718207  0.78599089  0.11577469    -0.16700
H333        H  0.43479692  0.73899500  0.20187141     0.21300
H334        H  0.39932394  0.85979224  0.23800468     0.19600
H335        H  0.43401141  0.83517713  0.34617530     0.19600
H336        H  0.39952071  0.76349786  0.09364449     0.15400
C337        C  0.45465653  0.75860170  0.97884163     0.30900
C338        C  0.46925532  0.73771586  0.94625557    -0.35500
C339        C  0.51595026  0.72770395  0.96765888     0.16900
C340        C  0.54597819  0.73748926  0.01782890     0.22700
C341        C  0.53141977  0.75846370  0.05038051    -0.33600
C342        C  0.48470813  0.76847142  0.02896186     0.16800
O343        O  0.41334684  0.77244406  0.96545771    -0.25600
C344        C  0.41648537  0.79114464  0.00764479     0.06600
C345        C  0.46029775  0.78974537  0.04846373    -0.30500
O346        O  0.58715531  0.72340839  0.03130158    -0.22300
C347        C  0.58392688  0.70462859  0.98912528    -0.02300
C348        C  0.54024791  0.70632322  0.94815595    -0.16700
H349        H  0.44581948  0.72990857  0.90686752     0.21300
H350        H  0.55483586  0.76623134  0.08980107     0.19600
H351        H  0.47331292  0.80427358  0.08523244     0.19600
H352        H  0.52709015  0.69181787  0.91137472     0.15400
C353        C  0.58716755  0.70611144  0.83088936     0.30900
C354        C  0.56772484  0.73266989  0.79497041    -0.35500
C355        C  0.55895610  0.72532618  0.74155714     0.16900
C356        C  0.56893306  0.69408923  0.72466500     0.22700
C357        C  0.58811074  0.66751373  0.76049081    -0.33600
C358        C  0.59661464  0.67479287  0.81376545     0.16800
O359        O  0.59827631  0.70731673  0.88263650    -0.25600
C360        C  0.61494634  0.67628447  0.89883812     0.06600
C361        C  0.61448838  0.65496364  0.85750471    -0.30500
O362        O  0.55842925  0.69287064  0.67309221    -0.22300
C363        C  0.54113361  0.72366862  0.65649254    -0.02300
C364        C  0.54057395  0.74490779  0.69741321    -0.16700
H365        H  0.55994756  0.75732889  0.80775659     0.21300
H366        H  0.59591130  0.64285262  0.74772360     0.19600
H367        H  0.62508425  0.62856491  0.85898420     0.19600
H368        H  0.52873680  0.77106380  0.69499322     0.15400
C369        C  0.05953397  0.52450071  0.23946358     0.30900
C370        C  0.06665607  0.51221961  0.29000418    -0.35500
C371        C  0.08842347  0.53493399  0.33260302     0.16900
C372        C  0.10201683  0.56756122  0.32592266     0.22700
C373        C  0.09496815  0.57980561  0.27542878    -0.33600
C374        C  0.07343956  0.55704642  0.23287622     0.16800
O375        O  0.04117236  0.50726587  0.19430434    -0.25600
C376        C  0.04354282  0.52899376  0.15832160     0.06600
C377        C  0.06323145  0.56038420  0.18008219    -0.30500
O378        O  0.12235368  0.58429680  0.37122074    -0.22300
C379        C  0.12151795  0.56221509  0.40746689    -0.02300
C380        C  0.10136360  0.53087384  0.38575224    -0.16700
H381        H  0.05649155  0.48658989  0.29577718     0.21300
H382        H  0.10606551  0.60517128  0.26978451     0.19200
H383        H  0.06982567  0.58222190  0.16001785     0.19600
H384        H  0.09766244  0.50818984  0.40604849     0.15400
C385        C  0.89756519  0.93365873  0.67703012     0.30900
C386        C  0.90617764  0.92196775  0.72821404    -0.35500
C387        C  0.92813356  0.94530058  0.76982973     0.16900
C388        C  0.94081964  0.97791656  0.76175340     0.22700
C389        C  0.93176845  0.98972299  0.71049773    -0.33600
C390        C  0.90976840  0.96639519  0.66886218     0.16800
O391        O  0.87776561  0.91604376  0.63246643    -0.25600
C392        C  0.87747667  0.93771975  0.59521735     0.06600
C393        C  0.89631426  0.96963659  0.61553832    -0.30500
O394        O  0.96076673  0.99547759  0.80641456    -0.22300
C395        C  0.96073961  0.97384586  0.84359029    -0.02300
C396        C  0.94079616  0.94227457  0.82306197    -0.16700
H397        H  0.89646301  0.89644348  0.73511673     0.21300
H398        H  0.94122081  0.01531257  0.70355249     0.19600
H399        H  0.89935184  0.99204834  0.59429857     0.19600
H400        H  0.93586618  0.92043107  0.84428732     0.15400
C401        C  0.18024871  0.91651176  0.05252549     0.30900
C402        C  0.20326824  0.88495253  0.06085322    -0.35500
C403        C  0.24716832  0.88496710  0.05774504     0.16900
C404        C  0.26676639  0.91404234  0.04671882     0.22700
C405        C  0.24435653  0.94570748  0.03981526    -0.33600
C406        C  0.20061317  0.94567905  0.04300838     0.16800
O407        O  0.13720306  0.92173470  0.04853638    -0.25600
C408        C  0.13006969  0.95469222  0.03650832     0.06600
C409        C  0.16845240  0.97088368  0.03290968    -0.30500
O410        O  0.30392295  0.90735384  0.03671374    -0.22300
C411        C  0.30907262  0.87372756  0.04271030    -0.02300
C412        C  0.27494699  0.85843666  0.05616529    -0.16700
H413        H  0.18696757  0.86166279  0.06634810     0.21300
H414        H  0.25869258  0.96835446  0.02928892     0.19600
H415        H  0.17138212  0.99701251  0.02188791     0.19600
H416        H  0.26828377  0.83138510  0.05776124     0.15400
C417        C  0.80855227  0.55619201  0.95531976     0.30900
C418        C  0.76496395  0.55250295  0.95830609    -0.35500
C419        C  0.73828135  0.58222517  0.95057623     0.16900
C420        C  0.75310550  0.61353487  0.94001559     0.22700
C421        C  0.79642222  0.61707616  0.93586111    -0.33600
C422        C  0.82344543  0.58734599  0.94431310     0.16800
O423        O  0.84092226  0.53254690  0.96694861    -0.25600
C424        C  0.87716888  0.54865576  0.96344516     0.06600
C425        C  0.86825598  0.58278179  0.94916386    -0.30500
O426        O  0.72592030  0.63878318  0.94252678    -0.22300
C427        C  0.69321948  0.62335650  0.95448198    -0.02300
C428        C  0.69916632  0.58821720  0.95974064    -0.16700
H429        H  0.75392753  0.52859012  0.96939246     0.21300
H430        H  0.80949519  0.64171851  0.93012049     0.19600
H431        H  0.89201968  0.60179384  0.94539447     0.19600
H432        H  0.68046428  0.57035150  0.97428390     0.15400
loop_ 
_geom_bond_atom_site_label_1 
_geom_bond_atom_site_label_2 
_geom_bond_distance 
_geom_bond_site_symmetry_2 
_ccdc_geom_bond_type 
O1           Cu9   2.012   1_455  S
O1          C227   1.277       .  A
O2           Cu9   2.010   1_556  S
O2           C12   1.278       .  A
O3           Cu9   2.017   1_455  S
O3           C13   1.278       .  A
O4         Cu225   2.019   1_546  S
O4           C14   1.279       .  A
O5          Cu10   2.007   1_655  S
O5           C14   1.277       .  A
O6         Cu226   2.011   1_554  S
O6           C13   1.278       .  A
O7          Cu10   2.022   1_655  S
O7          C228   1.279   1_545  A
O8          Cu10   2.022   1_554  S
O8           C11   1.280       .  A
Cu9         O220   2.019   1_554  S
Cu9        Cu226   2.374   1_654  S
Cu10        O222   2.011   1_556  S
Cu10       Cu225   2.374   1_446  S
C11         O217   1.277   1_545  A
C11         C160   1.474       .  S
C12         O223   1.279       .  A
C12         C179   1.474       .  S
C13         C192   1.472       .  S
C14         C208   1.471       .  S
N15          C19   1.363       .  A
N15          C16   1.361       .  A
N15         C144   1.446       .  S
C16         C211   1.471       .  S
C16          C17   1.379   1_556  A
C17          C18   1.368       .  A
C17          H20   1.083       .  S
C18          C19   1.381   1_554  A
C18          H21   1.083       .  S
C19         C131   1.475       .  S
N22          C26   1.364       .  A
N22          C23   1.358       .  A
N22         C115   1.445       .  S
C23         C195   1.469       .  S
C23          C24   1.378   1_554  A
C24          C25   1.369       .  A
C24          H27   1.083       .  S
C25          C26   1.382   1_556  A
C25          H28   1.083       .  S
C26         C128   1.474       .  S
O29         Cu37   2.021       .  S
O29          C39   1.279       .  A
O30         Cu37   2.023       .  S
O30          C40   1.279       .  A
O31         Cu37   2.014       .  S
O31          C41   1.279       .  A
O32         Cu37   2.011       .  S
O32          C42   1.277       .  A
O33         Cu38   2.003       .  S
O33          C42   1.278       .  A
O34         Cu38   2.000       .  S
O34          C41   1.275       .  A
O35         Cu38   2.023       .  S
O35          C40   1.279       .  A
O36         Cu38   2.022       .  S
O36          C39   1.279       .  A
Cu37        Cu38   2.375       .  S
C39         C147   1.478       .  S
C40         C112   1.478       .  S
C41          C96   1.467       .  S
C42          C80   1.467       .  S
N43          C47   1.360       .  A
N43          C44   1.355       .  A
N43         C163   1.443       .  S
C44          C99   1.464       .  S
C44          C45   1.378       .  A
C45          C46   1.371       .  A
C45          H48   1.083       .  S
C46          C47   1.381       .  A
C46          H49   1.083       .  S
C47          C64   1.469       .  S
N50          C54   1.360       .  A
N50          C51   1.354       .  A
N50         C176   1.443       .  S
C51          C83   1.464       .  S
C51          C52   1.379       .  A
C52          C53   1.372       .  A
C52          H55   1.083       .  S
C53          C54   1.381       .  A
C53          H56   1.083       .  S
C54          C67   1.469       .  S
C57          C62   1.380       .  A
C57          C58   1.401   1_545  A
C57          O63   1.314       .  A
C58         C275   1.399   1_455  A
C58          H69   1.083       .  S
C59          C68   1.359       .  A
C59          C60   1.380       .  A
C59         C274   1.399   1_655  A
C60         C277   1.403       .  A
C60          O66   1.316       .  A
C61          C62   1.401   1_655  A
C61         C276   1.403   1_545  A
C61          H70   1.083       .  S
C62          C65   1.362       .  A
O63          C64   1.330       .  A
C64          C65   1.391       .  A
C65          H71   1.082       .  S
O66          C67   1.331       .  A
C67          C68   1.390       .  A
C68          H72   1.083       .  S
C73          C78   1.381       .  A
C73          C74   1.404       .  A
C73          O79   1.320       .  A
C74          C75   1.404       .  A
C74          H85   1.082       .  S
C75          C84   1.363       .  A
C75          C76   1.382       .  A
C76          C77   1.399       .  A
C76          O82   1.315       .  A
C77          C78   1.398       .  A
C77          H86   1.083       .  S
C78          C81   1.357       .  A
O79          C80   1.332       .  A
C80          C81   1.388       .  A
C81          H87   1.083       .  S
O82          C83   1.328       .  A
C83          C84   1.389       .  A
C84          H88   1.083       .  S
C89          C94   1.380       .  A
C89          C90   1.404       .  A
C89          O95   1.318       .  A
C90          C91   1.403       .  A
C90         H101   1.082       .  S
C91         C100   1.363       .  A
C91          C92   1.381       .  A
C92          C93   1.401       .  A
C92          O98   1.315       .  A
C93          C94   1.399       .  A
C93         H102   1.083       .  S
C94          C97   1.359       .  A
O95          C96   1.331       .  A
C96          C97   1.389       .  A
C97         H103   1.083       .  S
O98          C99   1.328       .  A
C99         C100   1.389       .  A
C100        H104   1.083       .  S
C105        C110   1.380       .  A
C105        C106   1.407       .  A
C105        O111   1.322       .  A
C106        C107   1.406       .  A
C106        H117   1.082       .  S
C107        C116   1.366       .  A
C107        C108   1.380       .  A
C108        C109   1.406       .  A
C108        O114   1.320       .  A
C109        C110   1.405       .  A
C109        H118   1.082       .  S
C110        C113   1.365       .  A
O111        C112   1.333       .  A
C112        C113   1.393       .  A
C113        H119   1.082       .  S
O114        C115   1.332       .  A
C115        C116   1.394       .  A
C116        H120   1.082       .  S
C121        C126   1.379   1_556  A
C121        C122   1.404       .  A
C121        O127   1.315       .  A
C122        C123   1.401       .  A
C122        H133   1.083       .  S
C123        C132   1.366       .  A
C123        C124   1.379   1_556  A
C124        C125   1.405       .  A
C124        O130   1.315       .  A
C125        C126   1.402       .  A
C125        H134   1.083       .  S
C126        C129   1.366       .  A
O127        C128   1.332   1_556  A
C128        C129   1.392       .  A
C129        H135   1.082       .  S
O130        C131   1.332   1_554  A
C131        C132   1.392       .  A
C132        H136   1.082       .  S
C137        C142   1.380       .  A
C137        C138   1.407       .  A
C137        O143   1.323       .  A
C138        C139   1.407       .  A
C138        H149   1.082       .  S
C139        C148   1.365       .  A
C139        C140   1.380       .  A
C140        C141   1.404       .  A
C140        O146   1.321       .  A
C141        C142   1.404       .  A
C141        H150   1.082       .  S
C142        C145   1.361       .  A
O143        C144   1.333       .  A
C144        C145   1.394       .  A
C145        H151   1.081       .  S
O146        C147   1.332       .  A
C147        C148   1.394       .  A
C148        H152   1.082       .  S
C153        C158   1.380       .  A
C153        C154   1.405       .  A
C153        O159   1.320       .  A
C154        C155   1.404       .  A
C154        H165   1.082   1_545  S
C155        C164   1.363       .  A
C155        C156   1.380       .  A
C156        C157   1.404       .  A
C156        O162   1.319       .  A
C157        C158   1.403       .  A
C157        H166   1.082       .  S
C158        C161   1.363       .  A
O159        C160   1.332       .  A
C160        C161   1.392       .  A
C161        H167   1.082       .  S
O162        C163   1.331       .  A
C163        C164   1.394       .  A
C164        H168   1.082       .  S
C169        C174   1.380       .  A
C169        C170   1.404       .  A
C169        O175   1.320       .  A
C170        C171   1.404       .  A
C170        H181   1.082       .  S
C171        C180   1.362       .  A
C171        C172   1.380       .  A
C172        C173   1.405       .  A
C172        O178   1.321       .  A
C173        C174   1.404       .  A
C173        H182   1.082       .  S
C174        C177   1.362       .  A
O175        C176   1.332       .  A
C176        C177   1.393       .  A
C177        H183   1.082       .  S
O178        C179   1.332       .  A
C179        C180   1.392       .  A
C180        H184   1.083       .  S
C185        C190   1.380       .  A
C185        C186   1.405       .  A
C185        O191   1.321       .  A
C186        C187   1.404       .  A
C186        H197   1.082       .  S
C187        C196   1.364       .  A
C187        C188   1.381       .  A
C188        C189   1.402       .  A
C188        O194   1.316       .  A
C189        C190   1.401       .  A
C189        H198   1.083       .  S
C190        C193   1.360       .  A
O191        C192   1.332       .  A
C192        C193   1.391       .  A
C193        H199   1.083       .  S
O194        C195   1.330       .  A
C195        C196   1.390       .  A
C196        H200   1.083       .  S
C201        C206   1.381       .  A
C201        C202   1.401       .  A
C201        O207   1.318       .  A
C202        C203   1.401       .  A
C202        H213   1.082       .  S
C203        C212   1.358       .  A
C203        C204   1.381       .  A
C204        C205   1.406       .  A
C204        O210   1.322       .  A
C205        C206   1.405       .  A
C205        H214   1.082       .  S
C206        C209   1.364       .  A
O207        C208   1.329       .  A
C208        C209   1.393       .  A
C209        H215   1.082       .  S
O210        C211   1.331       .  A
C211        C212   1.389       .  A
C212        H216   1.083       .  S
O217       Cu225   2.012   1_455  S
O218       Cu225   2.010   1_556  S
O218        C228   1.278       .  A
O219       Cu225   2.017   1_455  S
O219        C229   1.278       .  A
O220        C230   1.279       .  A
O221       Cu226   2.007   1_655  S
O221        C230   1.277       .  A
O222        C229   1.278   1_545  A
O223       Cu226   2.022   1_655  S
O224       Cu226   2.022   1_554  S
O224        C227   1.280       .  A
C227        C376   1.474       .  S
C228        C395   1.474       .  S
C229        C408   1.472       .  S
C230        C424   1.471       .  S
N231        C235   1.363       .  A
N231        C232   1.361       .  A
N231        C360   1.446       .  S
C232        C427   1.471       .  S
C232        C233   1.379   1_556  A
C233        C234   1.368       .  A
C233        H236   1.083       .  S
C234        C235   1.381   1_554  A
C234        H237   1.083       .  S
C235        C347   1.475       .  S
N238        C242   1.364       .  A
N238        C239   1.358       .  A
N238        C331   1.445       .  S
C239        C411   1.469       .  S
C239        C240   1.378   1_554  A
C240        C241   1.369       .  A
C240        H243   1.083       .  S
C241        C242   1.382   1_556  A
C241        H244   1.083       .  S
C242        C344   1.474       .  S
O245       Cu253   2.021       .  S
O245        C255   1.279       .  A
O246       Cu253   2.023       .  S
O246        C256   1.279       .  A
O247       Cu253   2.014       .  S
O247        C257   1.279       .  A
O248       Cu253   2.011       .  S
O248        C258   1.277       .  A
O249       Cu254   2.003       .  S
O249        C258   1.278       .  A
O250       Cu254   2.000       .  S
O250        C257   1.275       .  A
O251       Cu254   2.023       .  S
O251        C256   1.279       .  A
O252       Cu254   2.022       .  S
O252        C255   1.279       .  A
Cu253      Cu254   2.375       .  S
C255        C363   1.478       .  S
C256        C328   1.478       .  S
C257        C312   1.467       .  S
C258        C296   1.467       .  S
N259        C263   1.360       .  A
N259        C260   1.355       .  A
N259        C379   1.443       .  S
C260        C315   1.464       .  S
C260        C261   1.378       .  A
C261        C262   1.371       .  A
C261        H264   1.083       .  S
C262        C263   1.381       .  A
C262        H265   1.083       .  S
C263        C280   1.469       .  S
N266        C270   1.360       .  A
N266        C267   1.354       .  A
N266        C392   1.443       .  S
C267        C299   1.464       .  S
C267        C268   1.379       .  A
C268        C269   1.372       .  A
C268        H271   1.083       .  S
C269        C270   1.381       .  A
C269        H272   1.083       .  S
C270        C283   1.469       .  S
C273        C278   1.380       .  A
C273        C274   1.401       .  A
C273        O279   1.314       .  A
C274        H285   1.083       .  S
C275        C284   1.359       .  A
C275        C276   1.380       .  A
C276        O282   1.316       .  A
C277        C278   1.401   1_655  A
C277        H286   1.083       .  S
C278        C281   1.362       .  A
O279        C280   1.330       .  A
C280        C281   1.391       .  A
C281        H287   1.082       .  S
O282        C283   1.331       .  A
C283        C284   1.390       .  A
C284        H288   1.083       .  S
C289        C294   1.381       .  A
C289        C290   1.404       .  A
C289        O295   1.320       .  A
C290        C291   1.404       .  A
C290        H301   1.082       .  S
C291        C300   1.363       .  A
C291        C292   1.382       .  A
C292        C293   1.399       .  A
C292        O298   1.315       .  A
C293        C294   1.398       .  A
C293        H302   1.083       .  S
C294        C297   1.357       .  A
O295        C296   1.332       .  A
C296        C297   1.388       .  A
C297        H303   1.083       .  S
O298        C299   1.328       .  A
C299        C300   1.389       .  A
C300        H304   1.083       .  S
C305        C310   1.380       .  A
C305        C306   1.404       .  A
C305        O311   1.318       .  A
C306        C307   1.403       .  A
C306        H317   1.082       .  S
C307        C316   1.363       .  A
C307        C308   1.381       .  A
C308        C309   1.401       .  A
C308        O314   1.315       .  A
C309        C310   1.399       .  A
C309        H318   1.083       .  S
C310        C313   1.359       .  A
O311        C312   1.331       .  A
C312        C313   1.389       .  A
C313        H319   1.083       .  S
O314        C315   1.328       .  A
C315        C316   1.389       .  A
C316        H320   1.083       .  S
C321        C326   1.380       .  A
C321        C322   1.407       .  A
C321        O327   1.322       .  A
C322        C323   1.406       .  A
C322        H333   1.082       .  S
C323        C332   1.366       .  A
C323        C324   1.380       .  A
C324        C325   1.406       .  A
C324        O330   1.320       .  A
C325        C326   1.405       .  A
C325        H334   1.082       .  S
C326        C329   1.365       .  A
O327        C328   1.333       .  A
C328        C329   1.393       .  A
C329        H335   1.082       .  S
O330        C331   1.332       .  A
C331        C332   1.394       .  A
C332        H336   1.082       .  S
C337        C342   1.379   1_556  A
C337        C338   1.404       .  A
C337        O343   1.315       .  A
C338        C339   1.401       .  A
C338        H349   1.083       .  S
C339        C348   1.366       .  A
C339        C340   1.379   1_556  A
C340        C341   1.405       .  A
C340        O346   1.315       .  A
C341        C342   1.402       .  A
C341        H350   1.083       .  S
C342        C345   1.366       .  A
O343        C344   1.332   1_556  A
C344        C345   1.392       .  A
C345        H351   1.082       .  S
O346        C347   1.332   1_554  A
C347        C348   1.392       .  A
C348        H352   1.082       .  S
C353        C358   1.380       .  A
C353        C354   1.407       .  A
C353        O359   1.323       .  A
C354        C355   1.407       .  A
C354        H365   1.082       .  S
C355        C364   1.365       .  A
C355        C356   1.380       .  A
C356        C357   1.404       .  A
C356        O362   1.321       .  A
C357        C358   1.404       .  A
C357        H366   1.082       .  S
C358        C361   1.361       .  A
O359        C360   1.333       .  A
C360        C361   1.394       .  A
C361        H367   1.081       .  S
O362        C363   1.332       .  A
C363        C364   1.394       .  A
C364        H368   1.082       .  S
C369        C374   1.380       .  A
C369        C370   1.405       .  A
C369        O375   1.320       .  A
C370        C371   1.404       .  A
C370        H381   1.082       .  S
C371        C380   1.363       .  A
C371        C372   1.380       .  A
C372        C373   1.404       .  A
C372        O378   1.319       .  A
C373        C374   1.403       .  A
C373        H382   1.082       .  S
C374        C377   1.363       .  A
O375        C376   1.332       .  A
C376        C377   1.392       .  A
C377        H383   1.082       .  S
O378        C379   1.331       .  A
C379        C380   1.394       .  A
C380        H384   1.082       .  S
C385        C390   1.380       .  A
C385        C386   1.404       .  A
C385        O391   1.320       .  A
C386        C387   1.404       .  A
C386        H397   1.082       .  S
C387        C396   1.362       .  A
C387        C388   1.380       .  A
C388        C389   1.405       .  A
C388        O394   1.321       .  A
C389        C390   1.404       .  A
C389        H398   1.082   1_565  S
C390        C393   1.362       .  A
O391        C392   1.332       .  A
C392        C393   1.393       .  A
C393        H399   1.082       .  S
O394        C395   1.332       .  A
C395        C396   1.392       .  A
C396        H400   1.083       .  S
C401        C406   1.380       .  A
C401        C402   1.405       .  A
C401        O407   1.321       .  A
C402        C403   1.404       .  A
C402        H413   1.082       .  S
C403        C412   1.364       .  A
C403        C404   1.381       .  A
C404        C405   1.402       .  A
C404        O410   1.316       .  A
C405        C406   1.401       .  A
C405        H414   1.083       .  S
C406        C409   1.360       .  A
O407        C408   1.332       .  A
C408        C409   1.391       .  A
C409        H415   1.083       .  S
O410        C411   1.330       .  A
C411        C412   1.390       .  A
C412        H416   1.083       .  S
C417        C422   1.381       .  A
C417        C418   1.401       .  A
C417        O423   1.318       .  A
C418        C419   1.401       .  A
C418        H429   1.082       .  S
C419        C428   1.358       .  A
C419        C420   1.381       .  A
C420        C421   1.406       .  A
C420        O426   1.322       .  A
C421        C422   1.405       .  A
C421        H430   1.082       .  S
C422        C425   1.364       .  A
O423        C424   1.329       .  A
C424        C425   1.393       .  A
C425        H431   1.082       .  S
O426        C427   1.331       .  A
C427        C428   1.389       .  A
C428        H432   1.083       .  S
