geometry optimzed in LAMMPS
_audit_creation_date              2020-11-30 
_audit_creation_method            'lammps2cif' 
_symmetry_space_group_name_H-M    'P1' 
_symmetry_Int_Tables_number       1 
_symmetry_cell_setting            triclinic 
loop_ 
_symmetry_equiv_pos_as_xyz 
  x,y,z 
_cell_length_a                    28.70053934 
_cell_length_b                    30.3196049388467 
_cell_length_c                    32.1372196795217 
_cell_angle_alpha                 88.92895493293295 
_cell_angle_beta                  89.81899553338826 
_cell_angle_gamma                 90.0780184662237 
loop_ 
_atom_site_label 
_atom_site_type_symbol 
_atom_site_fract_x 
_atom_site_fract_y 
_atom_site_fract_z 
_atom_site_charge 
O1          O  0.45090240  0.44972594  0.97745032    -0.73100
O2          O  0.55424202  0.53849099  0.96696302    -0.74000
O3          O  0.54815637  0.44762124  0.95587069    -0.62700
O4          O  0.45778193  0.54079461  0.98974843    -0.71100
O5          O  0.47936018  0.53146272  0.05522491    -0.70600
O6          O  0.56464709  0.43376672  0.02236421    -0.61900
O7          O  0.57527547  0.52547634  0.03221211    -0.74400
O8          O  0.46744432  0.44066411  0.04444786    -0.73200
Cu9        Cu  0.50220750  0.49450234  0.97021070     1.04600
Cu10       Cu  0.52239990  0.48230959  0.04087028     1.04300
C11         C  0.44126457  0.43299028  0.01320429     0.93100
C12         C  0.58186073  0.54540026  0.99726820     0.92300
C13         C  0.57131381  0.42675890  0.98377561     0.84400
C14         C  0.45340376  0.55030487  0.02817706     0.90700
O15         O  0.55395953  0.05579144  0.54009673    -0.73100
O16         O  0.45044827  0.05679212  0.45459220    -0.74000
O17         O  0.45431987  0.06198489  0.54257173    -0.62700
O18         O  0.55059207  0.05084198  0.45169618    -0.71100
O19         O  0.54702114  0.97810565  0.45763738    -0.70600
O20         O  0.44818272  0.98918035  0.54614691    -0.61900
O21         O  0.44732030  0.98375818  0.45813287    -0.74400
O22         O  0.54765630  0.98320844  0.54563628    -0.73200
Cu23       Cu  0.50252437  0.05890694  0.49700504     1.04600
Cu24       Cu  0.49737987  0.98111354  0.50205193     1.04300
C25         C  0.56730709  0.01907289  0.55637087     0.93100
C26         C  0.43224423  0.02040104  0.44320683     0.92300
C27         C  0.43543297  0.02723823  0.55827604     0.84400
C28         C  0.56488750  0.01280375  0.44083303     0.90700
O29         O  0.03195925  0.54774584  0.45240381    -0.73100
O30         O  0.03248761  0.44848574  0.54082384    -0.74000
O31         O  0.02198948  0.45089454  0.45392568    -0.62700
O32         O  0.04318368  0.54510671  0.53999240    -0.71100
O33         O  0.96711827  0.55220471  0.54891242    -0.70600
O34         O  0.94600743  0.45916513  0.46119065    -0.61900
O35         O  0.95624779  0.45642732  0.54775674    -0.74400
O36         O  0.95598956  0.55517042  0.46202945    -0.73200
Cu37       Cu  0.03507667  0.49787549  0.49650757     1.04600
Cu38       Cu  0.95386622  0.50599545  0.50520302     1.04300
C39         C  0.99394298  0.56872713  0.44520438     0.93100
C40         C  0.99361865  0.43530084  0.55644372     0.92300
C41         C  0.98050391  0.43812129  0.44585567     0.84400
C42         C  0.00869028  0.56512973  0.55651946     0.90700
N43         N  0.27512961  0.27593298  0.04708504    -0.03600
C44         C  0.31645649  0.29636922  0.05341234    -0.01000
C45         C  0.34844147  0.26635821  0.06918611    -0.23900
C46         C  0.32644620  0.22610421  0.07141553    -0.24100
C47         C  0.28161670  0.23307098  0.05747947    -0.01100
H48         H  0.38520423  0.27223277  0.07426764     0.12700
H49         H  0.34278226  0.19458086  0.07800490     0.12700
N50         N  0.30052534  0.71809125  0.06029439    -0.03600
C51         C  0.34060088  0.69766666  0.07185640    -0.01000
C52         C  0.36984808  0.72721916  0.09128147    -0.23900
C53         C  0.34761142  0.76719055  0.09090026    -0.24100
C54         C  0.30529421  0.76044663  0.07194859    -0.01100
H55         H  0.40521127  0.72112617  0.10154653     0.12700
H56         H  0.36227410  0.79844896  0.10005737     0.12700
N57         N  0.28736787  0.01568330  0.72383712    -0.03600
C58         C  0.33105985  0.02463211  0.70937077    -0.01000
C59         C  0.36279973  0.02164628  0.74170036    -0.23900
C60         C  0.33807064  0.01129233  0.77708881    -0.24100
C61         C  0.29213590  0.00767989  0.76519738    -0.01100
H62         H  0.40018242  0.02582269  0.73960398     0.12700
H63         H  0.35205923  0.00632248  0.80803935     0.12700
O64         O  0.16684524  0.05864778  0.99846710    -0.73100
O65         O  0.17903417  0.92598451  0.00513689    -0.74000
O66         O  0.17728299  0.99543007  0.06381371    -0.62700
O67         O  0.16818242  0.98893298  0.93770368    -0.71100
O68         O  0.24518470  0.99569846  0.93405168    -0.70600
O69         O  0.25409754  0.00037184  0.05658800    -0.61900
O70         O  0.25554168  0.93469484  0.99795490    -0.74400
O71         O  0.24397269  0.06211276  0.99236164    -0.73200
Cu72       Cu  0.16966357  0.99202059  0.00113829     1.04600
Cu73       Cu  0.25196850  0.99847339  0.99487841     1.04300
C74         C  0.20465987  0.08091612  0.99608561     0.93100
C75         C  0.22018689  0.90997525  0.00340162     0.92300
C76         C  0.21793741  0.99842705  0.07975003     0.84400
C77         C  0.20592268  0.99100522  0.91636110     0.90700
N78         N  0.27820842  0.02645620  0.28049827    -0.03600
C79         C  0.31657571  0.04178021  0.30059137    -0.01000
C80         C  0.34533420  0.06461507  0.27312644    -0.23900
C81         C  0.32447407  0.06343894  0.23491144    -0.24100
C82         C  0.28342778  0.04027089  0.24025617    -0.01100
H83         H  0.37961787  0.07766129  0.27963535     0.12700
H84         H  0.33908961  0.07559268  0.20578194     0.12700
N85         N  0.71644593  0.26769790  0.92123378    -0.03600
C86         C  0.68392493  0.29678896  0.90755885    -0.01000
C87         C  0.66095205  0.28035930  0.87339352    -0.23900
C88         C  0.67983232  0.23970320  0.86589693    -0.24100
C89         C  0.71405480  0.23301320  0.89541483    -0.01100
H90         H  0.63008893  0.29403254  0.85881425     0.12700
H91         H  0.66663394  0.21570188  0.84435237     0.12700
N92         N  0.97773536  0.27383434  0.70394332    -0.03600
C93         C  0.95691448  0.30462291  0.67854064    -0.01000
C94         C  0.93372145  0.33550059  0.70209000    -0.23900
C95         C  0.94194084  0.32522427  0.74282861    -0.24100
C96         C  0.96957183  0.28809080  0.74327972    -0.01100
H97         H  0.91790015  0.36578479  0.69074627     0.12700
H98         H  0.93239163  0.34496505  0.76924448     0.12700
O99         O  0.98281879  0.24345171  0.06000447    -0.73100
O100        O  0.00362360  0.23657889  0.93757218    -0.74000
O101        O  0.06376086  0.24380873  0.00774845    -0.62700
O102        O  0.92305663  0.24065157  0.98885109    -0.71100
O103        O  0.92407662  0.31376073  0.98505906    -0.70600
O104        O  0.06111958  0.31688436  0.00216536    -0.61900
O105        O  0.00200860  0.30945186  0.93162338    -0.74400
O106        O  0.98335051  0.31661745  0.05641316    -0.73200
Cu107      Cu  0.99341400  0.23853872  0.99886497     1.04600
Cu108      Cu  0.99262764  0.31667722  0.99374094     1.04300
C109        C  0.98014126  0.28056973  0.07775825     0.93100
C110        C  0.00450983  0.27142792  0.91488260     0.92300
C111        C  0.08419377  0.28149222  0.00768815     0.84400
C112        C  0.90198302  0.27746393  0.98250336     0.90700
N113        N  0.96023614  0.28674995  0.29074062    -0.03600
C114        C  0.94674663  0.32034127  0.31636096    -0.01000
C115        C  0.92716736  0.35454831  0.29337630    -0.23900
C116        C  0.92956597  0.34343505  0.25270942    -0.24100
C117        C  0.95055945  0.30266796  0.25153665    -0.01100
H118        H  0.91604925  0.38620614  0.30486734     0.12700
H119        H  0.92038748  0.36437940  0.22635594     0.12700
N120        N  0.97879915  0.72709142  0.29235836     0.01200
C121        C  0.95655187  0.70438408  0.32402737    -0.01000
C122        C  0.91794774  0.68259246  0.30888670    -0.23900
C123        C  0.92029088  0.68541761  0.26667517    -0.24100
C124        C  0.96009949  0.70910671  0.25725040    -0.01100
H125        H  0.89601118  0.65947473  0.32607488     0.12700
H126        H  0.89869995  0.66732402  0.24532315     0.12700
N127        N  0.70620198  0.01518634  0.26965620    -0.03600
C128        C  0.66415393  0.00735263  0.28792059    -0.01000
C129        C  0.62972416  0.00535396  0.25797280    -0.23900
C130        C  0.65121919  0.01113755  0.22005451    -0.24100
C131        C  0.69805273  0.01646595  0.22803304    -0.01100
H132        H  0.59287394  0.99993854  0.26323336     0.12700
H133        H  0.63473741  0.01019920  0.18983331     0.12700
O134        O  0.98961359  0.93912703  0.33911308    -0.73100
O135        O  0.99019418  0.07516553  0.34245067    -0.74000
O136        O  0.92021506  0.00763133  0.34036213    -0.62700
O137        O  0.06085025  0.00679505  0.34293688    -0.71100
O138        O  0.06288998  0.00753012  0.27390934    -0.70600
O139        O  0.92253311  0.01365651  0.27144430    -0.61900
O140        O  0.99560878  0.07770851  0.27373460    -0.74400
O141        O  0.98883211  0.94330276  0.27028053    -0.73200
Cu142      Cu  0.99031484  0.00699565  0.34364128     1.04600
Cu143      Cu  0.99265620  0.01058367  0.27004103     1.04300
C144        C  0.98763389  0.91989936  0.30387376     0.93100
C145        C  0.99283209  0.09784784  0.30833323     0.92300
C146        C  0.89931830  0.01114870  0.30545110     0.84400
C147        C  0.08403287  0.00738154  0.30889912     0.90700
N148        N  0.73710362  0.71268212  0.00580927    -0.03600
C149        C  0.69319618  0.69837989  0.99844403    -0.01000
C150        C  0.66148865  0.73139876  0.00712057    -0.23900
C151        C  0.68665772  0.76709087  0.02011930    -0.24100
C152        C  0.73279620  0.75452234  0.01918387    -0.01100
H153        H  0.62390877  0.72933355  0.00510113     0.12700
H154        H  0.67292602  0.79881842  0.02890453     0.12700
N155        N  0.04355237  0.72091810  0.70704627    -0.03600
C156        C  0.05863785  0.68858702  0.68081478    -0.01000
C157        C  0.09030327  0.66138782  0.70089832    -0.23900
C158        C  0.09388882  0.67552289  0.74075423    -0.24100
C159        C  0.06434375  0.71103521  0.74427492    -0.01100
H160        H  0.10527777  0.63134324  0.68904580     0.12700
H161        H  0.11182526  0.65848511  0.76589777     0.12700
N162        N  0.71922595  0.99460888  0.71852546    -0.03600
C163        C  0.67714551  0.00845704  0.70390389    -0.01000
C164        C  0.64541570  0.01099931  0.73626941    -0.23900
C165        C  0.66865775  0.99943687  0.77200538    -0.24100
C166        C  0.71379497  0.99004869  0.76039054    -0.01100
H167        H  0.60903550  0.02009112  0.73400506     0.12700
H168        H  0.65444763  0.99859807  0.80324642     0.12700
O169        O  0.73901136  0.03816038  0.97446686    -0.73100
O170        O  0.77300419  0.91921842  0.01409709    -0.74000
O171        O  0.75096075  0.99728021  0.05302532    -0.62700
O172        O  0.75979724  0.95986489  0.93590070    -0.71100
O173        O  0.83336604  0.98232994  0.93212339    -0.70600
O174        O  0.82655006  0.01306159  0.05481596    -0.61900
O175        O  0.84850705  0.93529143  0.01026352    -0.74400
O176        O  0.81280805  0.05941445  0.97635284    -0.73200
Cu177      Cu  0.75341912  0.97798587  0.99456443     1.04600
Cu178      Cu  0.83331147  0.99817683  0.99346165     1.04300
C179        C  0.76999272  0.06770964  0.96855661     0.93100
C180        C  0.81553977  0.90802964  0.01814459     0.92300
C181        C  0.78683726  0.00969433  0.07288021     0.84400
C182        C  0.79663353  0.96738730  0.91468645     0.90700
O183        O  0.07509589  0.00043474  0.65048380    -0.73100
O184        O  0.93455009  0.99475013  0.64681512    -0.74000
O185        O  0.00210735  0.06508650  0.64838212    -0.62700
O186        O  0.00793496  0.92955018  0.65040297    -0.71100
O187        O  0.00420920  0.92960064  0.71921857    -0.70600
O188        O  0.99977788  0.06358395  0.71733800    -0.61900
O189        O  0.93202193  0.99456587  0.71585696    -0.74400
O190        O  0.07251762  0.99908715  0.71956005    -0.73200
Cu191      Cu  0.00501625  0.99740092  0.64658129     1.04600
Cu192      Cu  0.00209957  0.99666059  0.72029878     1.04300
C193        C  0.09581958  0.00081445  0.68557978     0.93100
C194        C  0.91120303  0.99436998  0.68074380     0.92300
C195        C  0.00019749  0.08553827  0.68294554     0.84400
C196        C  0.00659281  0.90822166  0.68530786     0.90700
O197        O  0.09157301  0.66515129  0.00614979    -0.73100
O198        O  0.95413485  0.66149454  0.99800858    -0.74000
O199        O  0.02707432  0.66800828  0.93756065    -0.62700
O200        O  0.01833425  0.66519805  0.06510502    -0.71100
O201        O  0.01631408  0.73803668  0.06314126    -0.70600
O202        O  0.02552128  0.74105163  0.94013786    -0.61900
O203        O  0.94998183  0.73463949  0.99853723    -0.74400
O204        O  0.09181815  0.73838224  0.00621212    -0.73200
Cu205      Cu  0.02289151  0.66238635  0.00147389     1.04600
Cu206      Cu  0.02084188  0.74056402  0.00176629     1.04300
C207        C  0.11349865  0.70142018  0.00884877     0.93100
C208        C  0.93017056  0.69665368  0.99839720     0.92300
C209        C  0.02762379  0.70600940  0.91908126     0.84400
C210        C  0.01599165  0.70211785  0.08410218     0.90700
C211        C  0.85971074  0.99321373  0.67992978    -0.06200
C212        C  0.83724184  0.95350218  0.69061955    -0.17400
C213        C  0.78921536  0.95213460  0.69835248     0.11000
C214        C  0.76304411  0.99151141  0.69677677    -0.06200
C215        C  0.78458551  0.03036676  0.68223222    -0.17400
C216        C  0.83255431  0.03167366  0.67366502     0.11000
S217        S  0.76339672  0.89956577  0.71179400    -0.32400
S218        S  0.85736694  0.08440106  0.65918450    -0.32400
H219        H  0.89523651  0.06809595  0.63650021     0.29000
H220        H  0.71715224  0.91205293  0.70352541     0.29000
H221        H  0.85746352  0.92356068  0.69433375     0.19600
H222        H  0.76464701  0.06066180  0.68086968     0.19600
C223        C  0.75005727  0.97866316  0.79133110    -0.06200
C224        C  0.74530498  0.93799603  0.81238051    -0.17400
C225        C  0.76650021  0.93025947  0.85090318     0.11000
C226        C  0.79330354  0.96394202  0.86901007    -0.06200
C227        C  0.80342155  0.00214450  0.84526381    -0.17400
C228        C  0.78114153  0.01046599  0.80712373     0.11000
S229        S  0.75411954  0.87845772  0.87721118    -0.32400
S230        S  0.78983527  0.06434504  0.78345373    -0.32400
H231        H  0.74649458  0.06820341  0.76366255     0.29000
H232        H  0.79048646  0.88120160  0.90609465     0.29000
H233        H  0.72160265  0.91343941  0.80043251     0.19600
H234        H  0.82366674  0.02832566  0.85896682     0.19600
C235        C  0.04638069  0.72179799  0.78616202    -0.06200
C236        C  0.00953440  0.69568094  0.80186946    -0.17400
C237        C  0.00203235  0.69003377  0.84487202     0.11000
C238        C  0.03200560  0.71102165  0.87316828    -0.06200
C239        C  0.06654023  0.73979400  0.85732761    -0.17400
C240        C  0.07419505  0.74508990  0.81439883     0.11000
S241        S  0.95445298  0.65492383  0.86139126    -0.32400
S242        S  0.12207091  0.77958630  0.79745113    -0.32400
H243        H  0.10482419  0.78803275  0.75717474     0.29000
H244        H  0.94533758  0.67668413  0.89872979     0.29000
H245        H  0.98848187  0.67698155  0.78048040     0.19600
H246        H  0.08894789  0.75711437  0.87864180     0.19600
C247        C  0.02841840  0.76566401  0.69585263    -0.06200
C248        C  0.99353967  0.78618404  0.71957281    -0.17400
C249        C  0.98403205  0.83179199  0.71553968     0.11000
C250        C  0.00961051  0.85857630  0.68679994    -0.06200
C251        C  0.04234179  0.83766614  0.66130818    -0.17400
C252        C  0.05297292  0.79249906  0.66631129     0.11000
S253        S  0.93858320  0.85359762  0.74804910    -0.32400
S254        S  0.10233653  0.77304889  0.63744419    -0.32400
H255        H  0.12395847  0.75376185  0.67252126     0.29000
H256        H  0.92514247  0.88711105  0.71985075     0.29000
H257        H  0.97431656  0.76666747  0.74235394     0.19600
H258        H  0.06256542  0.85740564  0.63937579     0.19600
C259        C  0.87922120  0.69229648  0.00029351    -0.06200
C260        C  0.85372376  0.69211333  0.96323609    -0.17400
C261        C  0.80496346  0.69034352  0.96402222     0.11000
C262        C  0.78114066  0.69047414  0.00251071    -0.06200
C263        C  0.80696609  0.68542028  0.03925624    -0.17400
C264        C  0.85563917  0.68626377  0.03860937     0.11000
S265        S  0.77468701  0.69513621  0.91541035    -0.32400
S266        S  0.88532103  0.68398633  0.08795260    -0.32400
H267        H  0.92306126  0.65884349  0.07395880     0.29000
H268        H  0.74292115  0.66151404  0.92609543     0.29000
H269        H  0.87170787  0.69500290  0.93362240     0.19600
H270        H  0.78894011  0.68572497  0.06891681     0.19600
C271        C  0.82420925  0.86203815  0.02986044    -0.06200
C272        C  0.80057266  0.84706245  0.06573348    -0.17400
C273        C  0.77431359  0.80825690  0.06499787     0.11000
C274        C  0.77190951  0.78463230  0.02768872    -0.06200
C275        C  0.80278927  0.79536394  0.99511889    -0.17400
C276        C  0.83097083  0.83273229  0.99707743     0.11000
S277        S  0.74086360  0.79327670  0.11070853    -0.32400
S278        S  0.86786302  0.84621041  0.95324993    -0.32400
H279        H  0.89725659  0.87435123  0.97556057     0.29000
H280        H  0.73625503  0.74839851  0.10116902     0.29000
H281        H  0.79662348  0.86884486  0.09186841     0.19600
H282        H  0.80188488  0.77742077  0.96643130     0.19600
C283        C  0.75137133  0.01864681  0.28870868    -0.06200
C284        C  0.77016828  0.98207652  0.30999071    -0.17400
C285        C  0.81812149  0.97927037  0.31821925     0.11000
C286        C  0.84800601  0.01369168  0.30390286    -0.06200
C287        C  0.82836413  0.05176772  0.28586344    -0.17400
C288        C  0.78036223  0.05515316  0.27957907     0.11000
S289        S  0.83801753  0.92983545  0.34492773    -0.32400
S290        S  0.75773916  0.10684568  0.25990148    -0.32400
H291        H  0.71162032  0.09960334  0.27333725     0.29000
H292        H  0.88580949  0.93341617  0.33697619     0.29000
H293        H  0.74779194  0.95425964  0.31774194     0.19600
H294        H  0.85067325  0.07914707  0.27655697     0.19600
C295        C  0.78059068  0.01831838  0.11738199    -0.06200
C296        C  0.78449009  0.98239207  0.14527286    -0.17400
C297        C  0.76061227  0.98183056  0.18340799     0.11000
C298        C  0.73341958  0.01875218  0.19442988    -0.06200
C299        C  0.73328118  0.05621841  0.16810456    -0.17400
C300        C  0.75669263  0.05636690  0.12975495     0.11000
S301        S  0.76229014  0.93109087  0.21369902    -0.32400
S302        S  0.75214541  0.10344628  0.09477617    -0.32400
H303        H  0.73112375  0.13187988  0.12337072     0.29000
H304        H  0.71791693  0.93425490  0.23182704     0.29000
H305        H  0.80199601  0.95268804  0.13535123     0.19600
H306        H  0.71200376  0.08422507  0.17632278     0.19600
C307        C  0.98231084  0.77542929  0.29509171    -0.06200
C308        C  0.95055929  0.80279634  0.27300541    -0.17400
C309        C  0.95139165  0.84915354  0.27524687     0.11000
C310        C  0.98366364  0.87032948  0.30166364    -0.06200
C311        C  0.01385845  0.84323458  0.32538215    -0.17400
C312        C  0.01410145  0.79670196  0.32181397     0.11000
S313        S  0.90919869  0.87867019  0.24379621    -0.32400
S314        S  0.05671439  0.76633969  0.35137681    -0.32400
H315        H  0.06450146  0.73539380  0.32019079     0.29000
H316        H  0.90507761  0.91569036  0.26894856     0.29000
H317        H  0.92449785  0.78789314  0.25341794     0.19600
H318        H  0.03884462  0.85856218  0.34578021     0.19600
C319        C  0.01038957  0.70376253  0.13034687    -0.06200
C320        C  0.99771095  0.66502735  0.15191514    -0.17400
C321        C  0.98518281  0.66538984  0.19410756     0.11000
C322        C  0.98349452  0.70597195  0.21559269    -0.06200
C323        C  0.00087743  0.74387755  0.19531619    -0.17400
C324        C  0.01453253  0.74337514  0.15321276     0.11000
S325        S  0.97374950  0.61300477  0.22017294    -0.32400
S326        S  0.03788930  0.79366642  0.13006917    -0.32400
H327        H  0.02837451  0.82170634  0.16342289     0.29000
H328        H  0.97324416  0.58669575  0.18459097     0.29000
H329        H  0.99665123  0.63429266  0.13538411     0.19600
H330        H  0.00268052  0.77436805  0.21189150     0.19600
C331        C  0.99046921  0.14763715  0.30840695    -0.06200
C332        C  0.95580798  0.16814374  0.33235638    -0.17400
C333        C  0.94629918  0.21392199  0.32843570     0.11000
C334        C  0.97322258  0.24107657  0.30101794    -0.06200
C335        C  0.00961192  0.22082220  0.27893830    -0.17400
C336        C  0.01832459  0.17506646  0.28204817     0.11000
S337        S  0.89625634  0.23579501  0.35513315    -0.32400
S338        S  0.06548476  0.15417613  0.25087382    -0.32400
H339        H  0.07567347  0.11746193  0.27635338     0.29000
H340        H  0.88446503  0.19728303  0.37788775     0.29000
H341        H  0.93393683  0.14757426  0.35218926     0.19600
H342        H  0.03103464  0.24079694  0.25822202     0.19600
C343        C  0.96747647  0.28631697  0.21112628    -0.06200
C344        C  0.93914055  0.25722994  0.18913820    -0.17400
C345        C  0.94236004  0.25460053  0.14561065     0.11000
C346        C  0.97483242  0.28149969  0.12351511    -0.06200
C347        C  0.00472358  0.30873933  0.14581986    -0.17400
C348        C  0.00179145  0.31101507  0.18910449     0.11000
S349        S  0.90114007  0.21951985  0.11986239    -0.32400
S350        S  0.04042960  0.34889755  0.21439941    -0.32400
H351        H  0.04063587  0.32543199  0.25237805     0.29000
H352        H  0.89426696  0.24801762  0.08537709     0.29000
H353        H  0.91172756  0.23932904  0.20547952     0.19600
H354        H  0.03050552  0.32864986  0.12934308     0.19600
C355        C  0.00639972  0.26801329  0.86885750    -0.06200
C356        C  0.02663766  0.30279665  0.84585216    -0.17400
C357        C  0.02168963  0.30584046  0.80266729     0.11000
C358        C  0.99447089  0.27434048  0.78169471    -0.06200
C359        C  0.97937679  0.23669381  0.80372521    -0.17400
C360        C  0.98500654  0.23307854  0.84698807     0.11000
S361        S  0.04721913  0.35310425  0.77632840    -0.32400
S362        S  0.95915571  0.18551683  0.87238266    -0.32400
H363        H  0.93132004  0.21073602  0.89906364     0.29000
H364        H  0.04883238  0.33385443  0.73690123     0.29000
H365        H  0.04482955  0.32886268  0.86178201     0.19600
H366        H  0.95892973  0.21204429  0.78819193     0.19600
C367        C  0.98221180  0.22739413  0.69418214    -0.06200
C368        C  0.02399184  0.21096829  0.67773725    -0.17400
C369        C  0.03089407  0.16523586  0.67202718     0.11000
C370        C  0.99535877  0.13468944  0.68392073    -0.06200
C371        C  0.95371465  0.15144667  0.70010624    -0.17400
C372        C  0.94613449  0.19684363  0.70407207     0.11000
S373        S  0.08706493  0.14885092  0.65222778    -0.32400
S374        S  0.88984053  0.21328550  0.72345003    -0.32400
H375        H  0.88615270  0.25142067  0.69840438     0.29000
H376        H  0.07793959  0.10408221  0.64624587     0.29000
H377        H  0.05186253  0.23394102  0.67018214     0.19600
H378        H  0.92645338  0.12870747  0.70988751     0.19600
C379        C  0.85230116  0.27885885  0.96999960    -0.06200
C380        C  0.81925334  0.25296069  0.99151715    -0.17400
C381        C  0.77222580  0.25308759  0.97950925     0.11000
C382        C  0.75798681  0.27824657  0.94425673    -0.06200
C383        C  0.79036347  0.30642563  0.92481782    -0.17400
C384        C  0.83713373  0.30660942  0.93675752     0.11000
S385        S  0.73196241  0.22101009  0.01050768    -0.32400
S386        S  0.87652907  0.33913795  0.90494368    -0.32400
H387        H  0.90995274  0.30548068  0.90201938     0.29000
H388        H  0.69329226  0.24672961  0.99945259     0.29000
H389        H  0.83006009  0.23270994  0.01789878     0.19600
H390        H  0.77996286  0.32521898  0.89738874     0.19600
C391        C  0.72927125  0.18881989  0.90842502    -0.06200
C392        C  0.69629769  0.16327572  0.93000889    -0.17400
C393        C  0.70912971  0.12535544  0.95193430     0.11000
C394        C  0.75595854  0.11074071  0.95041061    -0.06200
C395        C  0.78881197  0.13572262  0.92733774    -0.17400
C396        C  0.77592615  0.17468413  0.90631064     0.11000
S397        S  0.66434753  0.09971754  0.98366107    -0.32400
S398        S  0.82022083  0.20443112  0.87729311    -0.32400
H399        H  0.78996835  0.22995966  0.85242981     0.29000
H400        H  0.69370974  0.09227374  0.01800788     0.29000
H401        H  0.66066701  0.17486892  0.93241630     0.19600
H402        H  0.82455085  0.12451254  0.92502839     0.19600
C403        C  0.23362819  0.01452844  0.29854626    -0.06200
C404        C  0.20942843  0.04657544  0.32092263    -0.17400
C405        C  0.16098911  0.04422338  0.32677172     0.11000
C406        C  0.13566769  0.00878681  0.30955689    -0.06200
C407        C  0.16040982  0.97490381  0.29014826    -0.17400
C408        C  0.20900857  0.97686594  0.28555655     0.11000
S409        S  0.13441736  0.08954017  0.35380785    -0.32400
S410        S  0.23785156  0.93048171  0.26284759    -0.32400
H411        H  0.28139233  0.93969363  0.28034909     0.29000
H412        H  0.08829953  0.08390913  0.34113017     0.29000
H413        H  0.22793092  0.07572984  0.33081040     0.19600
H414        H  0.14165759  0.94684098  0.27812870     0.19600
C415        C  0.22478654  0.00031566  0.12514133    -0.06200
C416        C  0.20102737  0.03211317  0.14831486    -0.17400
C417        C  0.21684106  0.04397826  0.18795950     0.11000
C418        C  0.25726786  0.02352594  0.20437121    -0.06200
C419        C  0.27822203  0.98923616  0.18253715    -0.17400
C420        C  0.26162434  0.97658082  0.14389739     0.11000
S421        S  0.18525858  0.08665916  0.21443888    -0.32400
S422        S  0.28967084  0.93059037  0.11931655    -0.32400
H423        H  0.24998103  0.91744999  0.09715525     0.29000
H424        H  0.21965236  0.09799467  0.24324235     0.29000
H425        H  0.17230181  0.05010687  0.13427853     0.19600
H426        H  0.30869779  0.97283925  0.19535593     0.19600
C427        C  0.25445258  0.99597606  0.79471552    -0.06200
C428        C  0.22370666  0.02914728  0.80736180    -0.17400
C429        C  0.19939925  0.02500584  0.84518070     0.11000
C430        C  0.20668913  0.98744783  0.87081655    -0.06200
C431        C  0.23205300  0.95191447  0.85507761    -0.17400
C432        C  0.25601429  0.95576521  0.81733904     0.11000
S433        S  0.16520548  0.07113057  0.86206036    -0.32400
S434        S  0.29262298  0.91025840  0.80248273    -0.32400
H435        H  0.29615769  0.92199904  0.76009795     0.29000
H436        H  0.13446430  0.04574875  0.88684771     0.29000
H437        H  0.22208064  0.06001159  0.78993736     0.19600
H438        H  0.23756739  0.92290944  0.87434586     0.19600
C439        C  0.14713344  0.00372018  0.68706393    -0.06200
C440        C  0.16784077  0.04556626  0.68880947    -0.17400
C441        C  0.21572412  0.05028295  0.69592016     0.11000
C442        C  0.24374853  0.01260198  0.70200867    -0.06200
C443        C  0.22340117  0.97075409  0.69794305    -0.17400
C444        C  0.17556211  0.96586210  0.69047563     0.11000
S445        S  0.23859551  0.10497258  0.70170309    -0.32400
S446        S  0.15244372  0.91051459  0.68940901    -0.32400
H447        H  0.11314240  0.92036380  0.66509622     0.29000
H448        H  0.27782003  0.09682751  0.67686450     0.29000
H449        H  0.14629582  0.07474388  0.68653396     0.19600
H450        H  0.24447666  0.94166720  0.70342701     0.19600
C451        C  0.22971842  0.86347513  0.01195878    -0.06200
C452        C  0.21120418  0.84451929  0.04857742    -0.17400
C453        C  0.23499646  0.81059329  0.06955854     0.11000
C454        C  0.27811690  0.79633754  0.05349585    -0.06200
C455        C  0.29436518  0.81294321  0.01529386    -0.17400
C456        C  0.26936010  0.84466101  0.99346309     0.11000
S457        S  0.20975091  0.78909860  0.11729428    -0.32400
S458        S  0.29081152  0.86195025  0.94300822    -0.32400
H459        H  0.24627784  0.87372618  0.92863353     0.29000
H460        H  0.24884972  0.76622258  0.13235211     0.29000
H461        H  0.18075608  0.85892237  0.06298282     0.19600
H462        H  0.32612981  0.80005726  0.00182248     0.19600
C463        C  0.16392397  0.69947848  0.01736640    -0.06200
C464        C  0.17888976  0.67633617  0.05320355    -0.17400
C465        C  0.22551130  0.67777014  0.06603557     0.11000
C466        C  0.25856284  0.70118891  0.04162125    -0.06200
C467        C  0.24412224  0.71953209  0.00318147    -0.17400
C468        C  0.19728602  0.71990922  0.99130844     0.11000
S469        S  0.23990055  0.65174995  0.11518989    -0.32400
S470        S  0.18208822  0.74830158  0.94349054    -0.32400
H471        H  0.14445157  0.72062197  0.93379386     0.29000
H472        H  0.27109581  0.68425469  0.12841509     0.29000
H473        H  0.15347869  0.65950417  0.07288682     0.19600
H474        H  0.26908788  0.73689486  0.98365270     0.19600
C475        C  0.25311794  0.19793801  0.03988065    -0.06200
C476        C  0.26228539  0.18733576  0.99844196    -0.17400
C477        C  0.23810547  0.15347330  0.97934653     0.11000
C478        C  0.20604004  0.12827112  0.00290057    -0.06200
C479        C  0.19270553  0.14227743  0.04257882    -0.17400
C480        C  0.21625285  0.17695649  0.06154490     0.11000
S481        S  0.25155252  0.13917099  0.92631149    -0.32400
S482        S  0.19949546  0.19077089  0.11382604    -0.32400
H483        H  0.24247017  0.20847420  0.12600567     0.29000
H484        H  0.28557733  0.17191669  0.91919769     0.29000
H485        H  0.28927157  0.20509794  0.98143394     0.19600
H486        H  0.16807472  0.12280073  0.06084312     0.19600
C487        C  0.23069900  0.29287325  0.03366541    -0.06200
C488        C  0.21581965  0.28296881  0.99326022    -0.17400
C489        C  0.16838218  0.27794643  0.98390120     0.11000
C490        C  0.13467323  0.28535579  0.01508569    -0.06200
C491        C  0.14924646  0.29933335  0.05423893    -0.17400
C492        C  0.19659791  0.30245928  0.06401363     0.11000
S493        S  0.15372532  0.25853277  0.93282407    -0.32400
S494        S  0.21120343  0.31297047  0.11741483    -0.32400
H495        H  0.25681506  0.32731524  0.10972111     0.29000
H496        H  0.10809138  0.27504694  0.93129077     0.29000
H497        H  0.24153434  0.27445697  0.97007406     0.19600
H498        H  0.12346499  0.30580394  0.07811348     0.19600
C499        C  0.03597490  0.67181610  0.64238369    -0.06200
C500        C  0.06501835  0.66532703  0.60770385    -0.17400
C501        C  0.05538654  0.63306290  0.57806817     0.11000
C502        C  0.01688482  0.60413439  0.58380021    -0.06200
C503        C  0.98576564  0.61286530  0.61656693    -0.17400
C504        C  0.99457975  0.64644675  0.64531665     0.11000
S505        S  0.09395943  0.63070092  0.53378156    -0.32400
S506        S  0.95445410  0.65200519  0.68800228    -0.32400
H507        H  0.95776763  0.69820974  0.68855197     0.29000
H508        H  0.05847391  0.62156884  0.50510019     0.29000
H509        H  0.09736144  0.68361529  0.60504580     0.19600
H510        H  0.95525535  0.59219908  0.62094601     0.19600
C511        C  0.99013683  0.39403913  0.58281772    -0.06200
C512        C  0.94880227  0.36906926  0.58050512    -0.17400
C513        C  0.94073710  0.33232988  0.60670875     0.11000
C514        C  0.97390558  0.32011948  0.63705767    -0.06200
C515        C  0.01755834  0.34131202  0.63589656    -0.17400
C516        C  0.02574208  0.37843086  0.60977838     0.11000
S517        S  0.88511608  0.30496108  0.60352880    -0.32400
S518        S  0.07993866  0.40734022  0.61637290    -0.32400
H519        H  0.05916261  0.44931060  0.61755560     0.29000
H520        H  0.90010078  0.26555002  0.62301823     0.29000
H521        H  0.92165891  0.37905646  0.55899658     0.19600
H522        H  0.04319951  0.33277278  0.65933718     0.19600
C523        C  0.98035875  0.68015002  0.35908358    -0.06200
C524        C  0.95808630  0.68034734  0.39800862    -0.17400
C525        C  0.96460576  0.64621097  0.42754962     0.11000
C526        C  0.99325865  0.60960216  0.41812529    -0.06200
C527        C  0.01947602  0.61159839  0.38115696    -0.17400
C528        C  0.01335762  0.64626030  0.35160141     0.11000
S529        S  0.93465587  0.65118677  0.47660290    -0.32400
S530        S  0.04527894  0.64473872  0.30319605    -0.32400
H531        H  0.06362829  0.60202253  0.30850693     0.29000
H532        H  0.97072487  0.63211635  0.50023786     0.29000
H533        H  0.93284033  0.70594262  0.40439415     0.19600
H534        H  0.04280787  0.58463448  0.37435651     0.19600
C535        C  0.96025602  0.32989885  0.36005694    -0.06200
C536        C  0.92361763  0.34321853  0.38616114    -0.17400
C537        C  0.92940854  0.37635684  0.41570242     0.11000
C538        C  0.97298244  0.39830075  0.41922750    -0.06200
C539        C  0.01088817  0.38106412  0.39676938    -0.17400
C540        C  0.00511623  0.34689794  0.36816769     0.11000
S541        S  0.87900207  0.38964570  0.44651762    -0.32400
S542        S  0.05550174  0.32973428  0.33946814    -0.32400
H543        H  0.04204860  0.28522645  0.33946339     0.29000
H544        H  0.90395276  0.38984873  0.48410351     0.29000
H545        H  0.88875058  0.33092750  0.38050808     0.19600
H546        H  0.04525139  0.39536524  0.40020842     0.19600
C547        C  0.66290323  0.01611846  0.66006667    -0.06200
C548        C  0.66059319  0.97984356  0.63378100    -0.17400
C549        C  0.63165297  0.98043296  0.59841394     0.11000
C550        C  0.60430757  0.01834961  0.58906101    -0.06200
C551        C  0.61039242  0.05598140  0.61335765    -0.17400
C552        C  0.63917701  0.05523866  0.64847621     0.11000
S553        S  0.62959263  0.93215292  0.56628651    -0.32400
S554        S  0.64161072  0.10440160  0.67921909    -0.32400
H555        H  0.68490510  0.09501350  0.69773628     0.29000
H556        H  0.66156956  0.90641806  0.58920277     0.29000
H557        H  0.67863589  0.94988695  0.64277534     0.19600
H558        H  0.59066999  0.08564114  0.60634410     0.19600
C559        C  0.40034763  0.03113412  0.59216483    -0.06200
C560        C  0.40521777  0.06577829  0.62013052    -0.17400
C561        C  0.37860635  0.06725357  0.65656250     0.11000
C562        C  0.34623708  0.03313901  0.66583201    -0.06200
C563        C  0.33777631  0.00102170  0.63591952    -0.17400
C564        C  0.36428474  0.99985449  0.59896928     0.11000
S565        S  0.39017018  0.11228660  0.69117158    -0.32400
S566        S  0.35195673  0.95815219  0.56109317    -0.32400
H567        H  0.31273853  0.93989637  0.58137748     0.29000
H568        H  0.34848931  0.10933614  0.71406738     0.29000
H569        H  0.43173573  0.09069618  0.61480307     0.19600
H570        H  0.31292468  0.97504520  0.64286315     0.19600
C571        C  0.60070567  0.00853204  0.40731811    -0.06200
C572        C  0.60207797  0.96925971  0.38478743    -0.17400
C573        C  0.62844711  0.96605364  0.34827669     0.11000
C574        C  0.65338563  0.00313148  0.33289894    -0.06200
C575        C  0.65629875  0.04066556  0.35751143    -0.17400
C576        C  0.63118658  0.04337647  0.39498406     0.11000
S577        S  0.62649831  0.91462039  0.32098161    -0.32400
S578        S  0.63938386  0.09217459  0.42524509    -0.32400
H579        H  0.63655134  0.06968731  0.46390587     0.29000
H580        H  0.66855915  0.92101549  0.29912437     0.29000
H581        H  0.58062676  0.94140133  0.39439330     0.19600
H582        H  0.67603724  0.06905138  0.34632037     0.19600
C583        C  0.33457643  0.02682884  0.34158932    -0.06200
C584        C  0.32922962  0.05515272  0.37531705    -0.17400
C585        C  0.35843192  0.05199141  0.41026863     0.11000
C586        C  0.39469921  0.02041163  0.41138601    -0.06200
C587        C  0.39736046  0.98972938  0.37938072    -0.17400
C588        C  0.36842603  0.99280533  0.34440091     0.11000
S589        S  0.34805227  0.08944114  0.45217171    -0.32400
S590        S  0.38003386  0.95403923  0.30351203    -0.32400
H591        H  0.35510919  0.97396731  0.27091696     0.29000
H592        H  0.36253176  0.05998373  0.48391994     0.29000
H593        H  0.30392909  0.08161937  0.37339090     0.19600
H594        H  0.42454009  0.96491790  0.38015322     0.19600
C595        C  0.67813091  0.65332532  0.98843293    -0.06200
C596        C  0.68693855  0.61925854  0.01740695    -0.17400
C597        C  0.65855437  0.58137610  0.01913126     0.11000
C598        C  0.62003466  0.57831814  0.99179774    -0.06200
C599        C  0.61587145  0.60967795  0.95928902    -0.17400
C600        C  0.64451439  0.64682328  0.95717796     0.11000
S601        S  0.67165048  0.53808455  0.05667935    -0.32400
S602        S  0.63352654  0.68640589  0.91561782    -0.32400
H603        H  0.67409186  0.71169522  0.92025088     0.29000
H604        H  0.71342332  0.55629712  0.07145703     0.29000
H605        H  0.71334215  0.62403463  0.04087447     0.19600
H606        H  0.58816865  0.60691422  0.93668772     0.19600
C607        C  0.60601580  0.39431222  0.97090207    -0.06200
C608        C  0.59645515  0.34969675  0.97846619    -0.17400
C609        C  0.62319885  0.31707508  0.95958685     0.11000
C610        C  0.66149462  0.32950574  0.93415595    -0.06200
C611        C  0.67272881  0.37414219  0.92861281    -0.17400
C612        C  0.64533483  0.40672173  0.94684039     0.11000
S613        S  0.60526994  0.26000153  0.96462456    -0.32400
S614        S  0.66106660  0.46358619  0.93732586    -0.32400
H615        H  0.64670904  0.47780916  0.97670286     0.29000
H616        H  0.56476086  0.26719231  0.98826999     0.29000
H617        H  0.56606855  0.34061330  0.99678788     0.19600
H618        H  0.70164289  0.38366117  0.90861528     0.19600
C619        C  0.35734974  0.65376635  0.05989909    -0.06200
C620        C  0.37723475  0.62778047  0.09163653    -0.17400
C621        C  0.40757557  0.59318190  0.08291663     0.11000
C622        C  0.41790908  0.58326114  0.04082362    -0.06200
C623        C  0.39455623  0.60702832  0.00916209    -0.17400
C624        C  0.36569248  0.64271311  0.01807462     0.11000
S625        S  0.43397022  0.56641692  0.12754607    -0.32400
S626        S  0.34570658  0.67541159  0.97437737    -0.32400
H627        H  0.35644698  0.71628263  0.99193481     0.29000
H628        H  0.42628826  0.52351065  0.11391123     0.29000
H629        H  0.37160958  0.63662794  0.12380293     0.19600
H630        H  0.40135744  0.59996669  0.97677893     0.19600
C631        C  0.39944237  0.40467441  0.01863390    -0.06200
C632        C  0.38949772  0.37264142  0.98896778    -0.17400
C633        C  0.35561835  0.34001781  0.99702264     0.11000
C634        C  0.33203159  0.33903500  0.03565302    -0.06200
C635        C  0.33823776  0.37387541  0.06297245    -0.17400
C636        C  0.37050947  0.40733625  0.05418151     0.11000
S637        S  0.34582954  0.29701815  0.95989897    -0.32400
S638        S  0.37289710  0.45260814  0.08936640    -0.32400
H639        H  0.38359923  0.48419505  0.05813426     0.29000
H640        H  0.37833401  0.31211311  0.93002368     0.29000
H641        H  0.41021647  0.37153319  0.96080272     0.19600
H642        H  0.32005411  0.37369990  0.09254333     0.19600
loop_ 
_geom_bond_atom_site_label_1 
_geom_bond_atom_site_label_2 
_geom_bond_distance 
_geom_bond_site_symmetry_2 
_ccdc_geom_bond_type 
O1           Cu9   2.011       .  S
O1           C11   1.277   1_556  A
O2           Cu9   2.002       .  S
O2           C12   1.278       .  A
O3           Cu9   1.999       .  S
O3           C13   1.277       .  A
O4           Cu9   2.006       .  S
O4           C14   1.279   1_556  A
O5          Cu10   1.997       .  S
O5           C14   1.274       .  A
O6          Cu10   2.006       .  S
O6           C13   1.276   1_554  A
O7          Cu10   2.018       .  S
O7           C12   1.279   1_554  A
O8          Cu10   2.021       .  S
O8           C11   1.281       .  A
Cu9         Cu10   2.368   1_556  S
C11         C631   1.483       .  S
C12         C598   1.489       .  S
C13         C607   1.465       .  S
C14         C622   1.489       .  S
O15         Cu23   2.028       .  S
O15          C25   1.281       .  A
O16         Cu23   2.028       .  S
O16          C26   1.280       .  A
O17         Cu23   2.015       .  S
O17          C27   1.279       .  A
O18         Cu23   2.021       .  S
O18          C28   1.279       .  A
O19         Cu24   2.017       .  S
O19          C28   1.279   1_565  A
O20         Cu24   2.016       .  S
O20          C27   1.278   1_565  A
O21         Cu24   2.018       .  S
O21          C26   1.278   1_565  A
O22         Cu24   2.016       .  S
O22          C25   1.278   1_565  A
Cu23        Cu24   2.366   1_545  S
C25         C550   1.496       .  S
C26         C586   1.488       .  S
C27         C559   1.487       .  S
C28         C571   1.494       .  S
O29         Cu37   2.055       .  S
O29          C39   1.283   1_455  A
O30         Cu37   2.048       .  S
O30          C40   1.282   1_455  A
O31         Cu37   2.029       .  S
O31          C41   1.280   1_455  A
O32         Cu37   2.033       .  S
O32          C42   1.281       .  A
O33         Cu38   2.039       .  S
O33          C42   1.281   1_655  A
O34         Cu38   2.036       .  S
O34          C41   1.281       .  A
O35         Cu38   2.014       .  S
O35          C40   1.279       .  A
O36         Cu38   2.018       .  S
O36          C39   1.279       .  A
Cu37        Cu38   2.360   1_455  S
C39         C526   1.501       .  S
C40         C511   1.501       .  S
C41         C538   1.509       .  S
C42         C502   1.504       .  S
N43          C47   1.349       .  A
N43          C44   1.355       .  A
N43         C487   1.440       .  S
C44         C634   1.472       .  S
C44          C45   1.384       .  A
C45          C46   1.374       .  A
C45          H48   1.083       .  S
C46          C47   1.379       .  A
C46          H49   1.083       .  S
C47         C475   1.465       .  S
N50          C54   1.351       .  A
N50          C51   1.357       .  A
N50         C466   1.445       .  S
C51         C619   1.473       .  S
C51          C52   1.385       .  A
C52          C53   1.370       .  A
C52          H55   1.083       .  S
C53          C54   1.377       .  A
C53          H56   1.083       .  S
C54         C454   1.458       .  S
N57          C61   1.354       .  A
N57          C58   1.361       .  A
N57         C442   1.441       .  S
C58         C562   1.482       .  S
C58          C59   1.386       .  A
C59          C60   1.370       .  A
C59          H62   1.082       .  S
C60          C61   1.379       .  A
C60          H63   1.082       .  S
C61         C427   1.475   1_545  S
O64         Cu72   2.022   1_546  S
O64          C74   1.279       .  A
O65         Cu72   2.022       .  S
O65          C75   1.279       .  A
O66         Cu72   2.031       .  S
O66          C76   1.280       .  A
O67         Cu72   2.043   1_556  S
O67          C77   1.281       .  A
O68         Cu73   1.968       .  S
O68          C77   1.273       .  A
O69         Cu73   1.986   1_544  S
O69          C76   1.276   1_545  A
O70         Cu73   1.937       .  S
O70          C75   1.270   1_556  A
O71         Cu73   1.944   1_545  S
O71          C74   1.271       .  A
Cu72        Cu73   2.378   1_554  S
C74         C478   1.457   1_556  S
C75         C451   1.458       .  S
C76         C415   1.475   1_565  S
C77         C430   1.470       .  S
N78          C82   1.360       .  A
N78          C79   1.364       .  A
N78         C403   1.446       .  S
C79         C583   1.480       .  S
C79          C80   1.382       .  A
C80          C81   1.369       .  A
C80          H83   1.082       .  S
C81          C82   1.379       .  A
C81          H84   1.083       .  S
C82         C418   1.476       .  S
N85          C89   1.353       .  A
N85          C86   1.354       .  A
N85         C382   1.444       .  S
C86         C610   1.469       .  S
C86          C87   1.383       .  A
C87          C88   1.372       .  A
C87          H90   1.083       .  S
C88          C89   1.380       .  A
C88          H91   1.083       .  S
C89         C391   1.464       .  S
N92          C96   1.363       .  A
N92          C93   1.368       .  A
N92         C367   1.454       .  S
C93         C514   1.486       .  S
C93          C94   1.385       .  A
C94          C95   1.362       .  A
C94          H97   1.083       .  S
C95          C96   1.378       .  A
C95          H98   1.083       .  S
C96         C358   1.482       .  S
O99        Cu107   1.996   1_554  S
O99         C109   1.274       .  A
O100       Cu107   1.993   1_455  S
O100        C110   1.273       .  A
O101       Cu107   2.046   1_454  S
O101        C111   1.284       .  A
O102       Cu107   2.047       .  S
O102        C112   1.283       .  A
O103       Cu108   1.990       .  S
O103        C112   1.273       .  A
O104       Cu108   1.985   1_454  S
O104        C111   1.272       .  A
O105       Cu108   2.029   1_455  S
O105        C110   1.283       .  A
O106       Cu108   2.031   1_554  S
O106        C109   1.283       .  A
Cu107      Cu108   2.372       .  S
C109        C346   1.479       .  S
C110        C355   1.485       .  S
C111        C490   1.474       .  S
C112        C379   1.483       .  S
N113        C117   1.370       .  A
N113        C114   1.377       .  A
N113        C334   1.467       .  S
C114        C535   1.492       .  S
C114        C115   1.383       .  A
C115        C116   1.357       .  A
C115        H118   1.083       .  S
C116        C117   1.377       .  A
C116        H119   1.082       .  S
C117        C343   1.479       .  S
N120        C124   1.373       .  A
N120        C121   1.373       .  A
N120        C307   1.473       .  S
C121        C523   1.500       .  S
C121        C122   1.384       .  A
C122        C123   1.359       .  A
C122        H125   1.084       .  S
C123        C124   1.379       .  A
C123        H126   1.082       .  S
C124        C322   1.500       .  S
N127        C131   1.359       .  A
N127        C128   1.359       .  A
N127        C283   1.440       .  S
C128        C574   1.480       .  S
C128        C129   1.384       .  A
C129        C130   1.372       .  A
C129        H132   1.082   1_545  S
C130        C131   1.379       .  A
C130        H133   1.082       .  S
C131        C298   1.480       .  S
O134       Cu142   2.066   1_565  S
O134        C144   1.285       .  A
O135       Cu142   2.067       .  S
O135        C145   1.285       .  A
O136       Cu142   2.015       .  S
O136        C146   1.277       .  A
O137       Cu142   2.024   1_455  S
O137        C147   1.278       .  A
O138       Cu143   2.022   1_455  S
O138        C147   1.279       .  A
O139       Cu143   2.015       .  S
O139        C146   1.279       .  A
O140       Cu143   2.043       .  S
O140        C145   1.281       .  A
O141       Cu143   2.043   1_565  S
O141        C144   1.281       .  A
Cu142      Cu143   2.367       .  S
C144        C310   1.510       .  S
C145        C331   1.511       .  S
C146        C286   1.476       .  S
C147        C406   1.483       .  S
N148        C152   1.353       .  A
N148        C149   1.355   1_554  A
N148        C262   1.437       .  S
C149        C595   1.474       .  S
C149        C150   1.385   1_556  A
C150        C151   1.373       .  A
C150        H153   1.083       .  S
C151        C152   1.379       .  A
C151        H154   1.082       .  S
C152        C274   1.475       .  S
N155        C159   1.367       .  A
N155        C156   1.374       .  A
N155        C247   1.464       .  S
C156        C499   1.495       .  S
C156        C157   1.381       .  A
C157        C158   1.362       .  A
C157        H160   1.083       .  S
C158        C159   1.378       .  A
C158        H161   1.083       .  S
C159        C235   1.482       .  S
N162        C166   1.358       .  A
N162        C163   1.361   1_565  A
N162        C214   1.441       .  S
C163        C547   1.482       .  S
C163        C164   1.384       .  A
C164        C165   1.370   1_545  A
C164        H167   1.083       .  S
C165        C166   1.379       .  A
C165        H168   1.082       .  S
C166        C223   1.478       .  S
O169       Cu177   1.969   1_545  S
O169        C179   1.273       .  A
O170       Cu177   1.962   1_554  S
O170        C180   1.274       .  A
O171       Cu177   1.979   1_554  S
O171        C181   1.273   1_565  A
O172       Cu177   1.982       .  S
O172        C182   1.274       .  A
O173       Cu178   2.038       .  S
O173        C182   1.282       .  A
O174       Cu178   2.040   1_544  S
O174        C181   1.281       .  A
O175       Cu178   2.020   1_554  S
O175        C180   1.277       .  A
O176       Cu178   2.016   1_545  S
O176        C179   1.279       .  A
Cu177      Cu178   2.372       .  S
C179        C394   1.476       .  S
C180        C271   1.459       .  S
C181        C295   1.469       .  S
C182        C226   1.477       .  S
O183       Cu191   2.018   1_545  S
O183        C193   1.277       .  A
O184       Cu191   2.024   1_655  S
O184        C194   1.278       .  A
O185       Cu191   2.056   1_545  S
O185        C195   1.283       .  A
O186       Cu191   2.060       .  S
O186        C196   1.285       .  A
O187       Cu192   2.035       .  S
O187        C196   1.280       .  A
O188       Cu192   2.031   1_645  S
O188        C195   1.280   1_655  A
O189       Cu192   2.018   1_655  S
O189        C194   1.279       .  A
O190       Cu192   2.022       .  S
O190        C193   1.279   1_565  A
Cu191      Cu192   2.370       .  S
C193        C439   1.476       .  S
C194        C211   1.479       .  S
C195        C370   1.498   1_455  S
C196        C250   1.508       .  S
O197       Cu205   1.979       .  S
O197        C207   1.271       .  A
O198       Cu205   1.977   1_656  S
O198        C208   1.270       .  A
O199       Cu205   2.061   1_556  S
O199        C209   1.286       .  A
O200       Cu205   2.052       .  S
O200        C210   1.287       .  A
O201       Cu206   1.976       .  S
O201        C210   1.270       .  A
O202       Cu206   1.984   1_556  S
O202        C209   1.272       .  A
O203       Cu206   2.045   1_656  S
O203        C208   1.284       .  A
O204       Cu206   2.044       .  S
O204        C207   1.284       .  A
Cu205      Cu206   2.371       .  S
C207        C463   1.475       .  S
C208        C259   1.469   1_556  S
C209        C238   1.485       .  S
C210        C319   1.496       .  S
C211        C212   1.402       .  A
C211        C216   1.415   1_565  A
C212        C213   1.400       .  A
C212        H221   1.083       .  S
C213        C214   1.412       .  A
C213        S217   1.801       .  S
C214        C215   1.401   1_565  A
C215        C216   1.403       .  A
C215        H222   1.083       .  S
C216        S218   1.802       .  S
S217        H220   1.405       .  S
S218        H219   1.403       .  S
C223        C224   1.402       .  A
C223        C228   1.415   1_565  A
C224        C225   1.397       .  A
C224        H233   1.084       .  S
C225        C226   1.413       .  A
C225        S229   1.804       .  S
C226        C227   1.405   1_565  A
C227        C228   1.403       .  A
C227        H234   1.084       .  S
C228        S230   1.806       .  S
S229        H232   1.402       .  S
S230        H231   1.403       .  S
C235        C236   1.407       .  A
C235        C240   1.409       .  A
C236        C237   1.405       .  A
C236        H245   1.084   1_455  S
C237        C238   1.413       .  A
C237        S241   1.803   1_455  S
C238        C239   1.407       .  A
C239        C240   1.403       .  A
C239        H246   1.083       .  S
C240        S242   1.802       .  S
S241        H244   1.404       .  S
S242        H243   1.406       .  S
C247        C248   1.409   1_455  A
C247        C252   1.423       .  A
C248        C249   1.414       .  A
C248        H257   1.082       .  S
C249        C250   1.420   1_655  A
C249        S253   1.803       .  S
C250        C251   1.404       .  A
C251        C252   1.410       .  A
C251        H258   1.083       .  S
C252        S254   1.797       .  S
S253        H256   1.404       .  S
S254        H255   1.407       .  S
C259        C260   1.400   1_554  A
C259        C264   1.412       .  A
C260        C261   1.401       .  A
C260        H269   1.083       .  S
C261        C262   1.411   1_556  A
C261        S265   1.794       .  S
C262        C263   1.402       .  A
C263        C264   1.397       .  A
C263        H270   1.083       .  S
C264        S266   1.803       .  S
S265        H268   1.404       .  S
S266        H267   1.403       .  S
C271        C272   1.404       .  A
C271        C276   1.404   1_554  A
C272        C273   1.397       .  A
C272        H281   1.084       .  S
C273        C274   1.410       .  A
C273        S277   1.803       .  S
C274        C275   1.403   1_554  A
C275        C276   1.394       .  A
C275        H282   1.080       .  S
C276        S278   1.800       .  S
S277        H280   1.407       .  S
S278        H279   1.407       .  S
C283        C284   1.401   1_545  A
C283        C288   1.410       .  A
C284        C285   1.405       .  A
C284        H293   1.084       .  S
C285        C286   1.419   1_565  A
C285        S289   1.807       .  S
C286        C287   1.402       .  A
C287        C288   1.397       .  A
C287        H294   1.085       .  S
C288        S290   1.802       .  S
S289        H292   1.398       .  S
S290        H291   1.407       .  S
C295        C296   1.402   1_545  A
C295        C300   1.406       .  A
C296        C297   1.402       .  A
C296        H305   1.085       .  S
C297        C298   1.415   1_565  A
C297        S301   1.806       .  S
C298        C299   1.404       .  A
C299        C300   1.402       .  A
C299        H306   1.083       .  S
C300        S302   1.805       .  S
S301        H304   1.403       .  S
S302        H303   1.407       .  S
C307        C308   1.417       .  A
C307        C312   1.418   1_655  A
C308        C309   1.409       .  A
C308        H317   1.083       .  S
C309        C310   1.419       .  A
C309        S313   1.807       .  S
C310        C311   1.411   1_655  A
C311        C312   1.418       .  A
C311        H318   1.083       .  S
C312        S314   1.795       .  S
S313        H316   1.400       .  S
S314        H315   1.403       .  S
C319        C320   1.400   1_455  A
C319        C324   1.425       .  A
C320        C321   1.402       .  A
C320        H329   1.082       .  S
C321        C322   1.423       .  A
C321        S325   1.811       .  S
C322        C323   1.401   1_655  A
C323        C324   1.408       .  A
C323        H330   1.077       .  S
C324        S326   1.811       .  S
S325        H328   1.407       .  S
S326        H327   1.407       .  S
C331        C332   1.408       .  A
C331        C336   1.420   1_655  A
C332        C333   1.418       .  A
C332        H341   1.082       .  S
C333        C334   1.421       .  A
C333        S337   1.804       .  S
C334        C335   1.409   1_655  A
C335        C336   1.412       .  A
C335        H342   1.081       .  S
C336        S338   1.804       .  S
S337        H340   1.406       .  S
S338        H339   1.401       .  S
C343        C344   1.401       .  A
C343        C348   1.416   1_655  A
C344        C345   1.405       .  A
C344        H353   1.084       .  S
C345        C346   1.418       .  A
C345        S349   1.803       .  S
C346        C347   1.399   1_655  A
C347        C348   1.396       .  A
C347        H354   1.085       .  S
C348        S350   1.802       .  S
S349        H352   1.407       .  S
S350        H351   1.401       .  S
C355        C356   1.401       .  A
C355        C360   1.422   1_455  A
C356        C357   1.397       .  A
C356        H365   1.084       .  S
C357        C358   1.415   1_455  A
C357        S361   1.804       .  S
C358        C359   1.399       .  A
C359        C360   1.402       .  A
C359        H366   1.080       .  S
C360        S362   1.801       .  S
S361        H364   1.406       .  S
S362        H363   1.407       .  S
C367        C368   1.405   1_655  A
C367        C372   1.420       .  A
C368        C369   1.416       .  A
C368        H377   1.084       .  S
C369        C370   1.423   1_455  A
C369        S373   1.805       .  S
C370        C371   1.402       .  A
C371        C372   1.402       .  A
C371        H378   1.084       .  S
C372        S374   1.804       .  S
S373        H376   1.399       .  S
S374        H375   1.401       .  S
C379        C380   1.403       .  A
C379        C384   1.417       .  A
C380        C381   1.405       .  A
C380        H389   1.084   1_556  S
C381        C382   1.416       .  A
C381        S385   1.796   1_556  S
C382        C383   1.399       .  A
C383        C384   1.397       .  A
C383        H390   1.084       .  S
C384        S386   1.802       .  S
S385        H388   1.400   1_554  S
S386        H387   1.406       .  S
C391        C392   1.397       .  A
C391        C396   1.408       .  A
C392        C393   1.388       .  A
C392        H401   1.085       .  S
C393        C394   1.417       .  A
C393        S397   1.804       .  S
C394        C395   1.409       .  A
C395        C396   1.401       .  A
C395        H402   1.084       .  S
C396        S398   1.805       .  S
S397        H400   1.406   1_556  S
S398        H399   1.405       .  S
C403        C404   1.403       .  A
C403        C408   1.412   1_545  A
C404        C405   1.404       .  A
C404        H413   1.084       .  S
C405        C406   1.418       .  A
C405        S409   1.808       .  S
C406        C407   1.404   1_545  A
C407        C408   1.403       .  A
C407        H414   1.084       .  S
C408        S410   1.798       .  S
S409        H412   1.397       .  S
S410        H411   1.402       .  S
C415        C416   1.405       .  A
C415        C420   1.410   1_545  A
C416        C417   1.407       .  A
C416        H425   1.084       .  S
C417        C418   1.415       .  A
C417        S421   1.806       .  S
C418        C419   1.400   1_545  A
C419        C420   1.392       .  A
C419        H426   1.085       .  S
C420        S422   1.805       .  S
S421        H424   1.402       .  S
S422        H423   1.406       .  S
C427        C428   1.404   1_565  A
C427        C432   1.409       .  A
C428        C429   1.403       .  A
C428        H437   1.083       .  S
C429        C430   1.409   1_545  A
C429        S433   1.801       .  S
C430        C431   1.402       .  A
C431        C432   1.395       .  A
C431        H438   1.078       .  S
C432        S434   1.806       .  S
S433        H436   1.406       .  S
S434        H435   1.405       .  S
C439        C440   1.402       .  A
C439        C444   1.412   1_545  A
C440        C441   1.401       .  A
C440        H449   1.082       .  S
C441        C442   1.409       .  A
C441        S445   1.796       .  S
C442        C443   1.405   1_545  A
C443        C444   1.403       .  A
C443        H450   1.082       .  S
C444        S446   1.805       .  S
S445        H448   1.403       .  S
S446        H447   1.403       .  S
C451        C452   1.403       .  A
C451        C456   1.408   1_554  A
C452        C453   1.399       .  A
C452        H461   1.084       .  S
C453        C454   1.411       .  A
C453        S457   1.805       .  S
C454        C455   1.397       .  A
C455        C456   1.383   1_554  A
C455        H462   1.084       .  S
C456        S458   1.801       .  S
S457        H460   1.403       .  S
S458        H459   1.405       .  S
C463        C464   1.406       .  A
C463        C468   1.406   1_554  A
C464        C465   1.402       .  A
C464        H473   1.085       .  S
C465        C466   1.411       .  A
C465        S469   1.802       .  S
C466        C467   1.409       .  A
C467        C468   1.398   1_554  A
C467        H474   1.081   1_554  S
C468        S470   1.802       .  S
S469        H472   1.403       .  S
S470        H471   1.406       .  S
C475        C476   1.400   1_554  A
C475        C480   1.409       .  A
C476        C477   1.392       .  A
C476        H485   1.083       .  S
C477        C478   1.406   1_556  A
C477        S481   1.807       .  S
C478        C479   1.404       .  A
C479        C480   1.399       .  A
C479        H486   1.085       .  S
C480        S482   1.803       .  S
S481        H484   1.407       .  S
S482        H483   1.404       .  S
C487        C488   1.406   1_554  A
C487        C492   1.414       .  A
C488        C489   1.404       .  A
C488        H497   1.082       .  S
C489        C490   1.412   1_556  A
C489        S493   1.805       .  S
C490        C491   1.400       .  A
C491        C492   1.399       .  A
C491        H498   1.085       .  S
C492        S494   1.802       .  S
S493        H496   1.403       .  S
S494        H495   1.399       .  S
C499        C500   1.407       .  A
C499        C504   1.416   1_455  A
C500        C501   1.406       .  A
C500        H509   1.083       .  S
C501        C502   1.419       .  A
C501        S505   1.803       .  S
C502        C503   1.408   1_455  A
C503        C504   1.411       .  A
C503        H510   1.083       .  S
C504        S506   1.799       .  S
S505        H508   1.406       .  S
S506        H507   1.404       .  S
C511        C512   1.409       .  A
C511        C516   1.418   1_655  A
C512        C513   1.402       .  A
C512        H521   1.083       .  S
C513        C514   1.410       .  A
C513        S517   1.802       .  S
C514        C515   1.407   1_655  A
C515        C516   1.410       .  A
C515        H522   1.083       .  S
C516        S518   1.799       .  S
S517        H520   1.407       .  S
S518        H519   1.407       .  S
C523        C524   1.403       .  A
C523        C528   1.422   1_655  A
C524        C525   1.404       .  A
C524        H533   1.084       .  S
C525        C526   1.419       .  A
C525        S529   1.802       .  S
C526        C527   1.405   1_655  A
C527        C528   1.415       .  A
C527        H534   1.082       .  S
C528        S530   1.804       .  S
S529        H532   1.405       .  S
S530        H531   1.406       .  S
C535        C536   1.407       .  A
C535        C540   1.413   1_655  A
C536        C537   1.405       .  A
C536        H545   1.084       .  S
C537        C538   1.422       .  A
C537        S541   1.801       .  S
C538        C539   1.410   1_655  A
C539        C540   1.408       .  A
C539        H546   1.084       .  S
C540        S542   1.796       .  S
S541        H544   1.406       .  S
S542        H543   1.403       .  S
C547        C548   1.401   1_545  A
C547        C552   1.413       .  A
C548        C549   1.410       .  A
C548        H557   1.081       .  S
C549        C550   1.421   1_565  A
C549        S553   1.808       .  S
C550        C551   1.406       .  A
C551        C552   1.401       .  A
C551        H558   1.084       .  S
C552        S554   1.805       .  S
S553        H556   1.406       .  S
S554        H555   1.407       .  S
C559        C560   1.402       .  A
C559        C564   1.417   1_545  A
C560        C561   1.397       .  A
C560        H569   1.083       .  S
C561        C562   1.416       .  A
C561        S565   1.808       .  S
C562        C563   1.403       .  A
C563        C564   1.409   1_545  A
C563        H570   1.082   1_545  S
C564        S566   1.807       .  S
S565        H568   1.404       .  S
S566        H567   1.407       .  S
C571        C572   1.406   1_545  A
C571        C576   1.421       .  A
C572        C573   1.399       .  A
C572        H581   1.084       .  S
C573        C574   1.412   1_565  A
C573        S577   1.804       .  S
C574        C575   1.401       .  A
C575        C576   1.405       .  A
C575        H582   1.085       .  S
C576        S578   1.801       .  S
S577        H580   1.406       .  S
S578        H579   1.408       .  S
C583        C584   1.404       .  A
C583        C588   1.420   1_545  A
C584        C585   1.406       .  A
C584        H593   1.084       .  S
C585        C586   1.415       .  A
C585        S589   1.802       .  S
C586        C587   1.402   1_545  A
C587        C588   1.402       .  A
C587        H594   1.084       .  S
C588        S590   1.810       .  S
S589        H592   1.407       .  S
S590        H591   1.399       .  S
C595        C596   1.401   1_556  A
C595        C600   1.411       .  A
C596        C597   1.407       .  A
C596        H605   1.082       .  S
C597        C598   1.418   1_554  A
C597        S601   1.807       .  S
C598        C599   1.405       .  A
C599        C600   1.394       .  A
C599        H606   1.083       .  S
C600        S602   1.808       .  S
S601        H604   1.407       .  S
S602        H603   1.403       .  S
C607        C608   1.397       .  A
C607        C612   1.413       .  A
C608        C609   1.399       .  A
C608        H617   1.083       .  S
C609        C610   1.414       .  A
C609        S613   1.809       .  S
C610        C611   1.399       .  A
C611        C612   1.399       .  A
C611        H618   1.084       .  S
C612        S614   1.802       .  S
S613        H616   1.406       .  S
S614        H615   1.405       .  S
C619        C620   1.401       .  A
C619        C624   1.411       .  A
C620        C621   1.396       .  A
C620        H629   1.084       .  S
C621        C622   1.422       .  A
C621        S625   1.804       .  S
C622        C623   1.408       .  A
C623        C624   1.397       .  A
C623        H630   1.084   1_554  S
C624        S626   1.800   1_554  S
S625        H628   1.398       .  S
S626        H627   1.405       .  S
C631        C632   1.403   1_554  A
C631        C636   1.414       .  A
C632        C633   1.406       .  A
C632        H641   1.082       .  S
C633        C634   1.412   1_556  A
C633        S637   1.806       .  S
C634        C635   1.398       .  A
C635        C636   1.397       .  A
C635        H642   1.083       .  S
C636        S638   1.796       .  S
S637        H640   1.407       .  S
S638        H639   1.407       .  S
