geometry optimzed in LAMMPS
_audit_creation_date              2020-11-30 
_audit_creation_method            'lammps2cif' 
_symmetry_space_group_name_H-M    'P1' 
_symmetry_Int_Tables_number       1 
_symmetry_cell_setting            triclinic 
loop_ 
_symmetry_equiv_pos_as_xyz 
  x,y,z 
_cell_length_a                    39.00828394 
_cell_length_b                    39.008287103483866 
_cell_length_c                    39.00998411820862 
_cell_angle_alpha                 90.00141022439087 
_cell_angle_beta                  89.99557407914772 
_cell_angle_gamma                 89.99648313902232 
loop_ 
_atom_site_label 
_atom_site_type_symbol 
_atom_site_fract_x 
_atom_site_fract_y 
_atom_site_fract_z 
_atom_site_charge 
C1          C  0.77309846  0.72339182  0.75847911     0.05700
C2          C  0.78046888  0.74525801  0.73069480     0.05700
C3          C  0.75863391  0.77308424  0.72336588     0.05700
C4          C  0.73082260  0.78043630  0.74521644     0.05700
C5          C  0.72345117  0.75855954  0.77298976     0.05700
C6          C  0.74527771  0.73072921  0.78032444     0.05700
O7          O  0.57709690  0.00604674  0.71248958    -0.54400
C8          C  0.59506571  0.99611573  0.81794328     0.78300
O9          O  0.67645763  0.96263294  0.74789383    -0.55500
C10         C  0.59520741  0.00753339  0.68557510     0.78200
C11         C  0.65825107  0.06818664  0.75744430     0.80600
Cd12       Cd  0.62673662  0.00190152  0.75179502     1.37500
O13         O  0.57701156  0.99763543  0.79099629    -0.54300
O14         O  0.62610240  0.06449896  0.75635664    -0.53200
C15         C  0.65840439  0.93569696  0.74614195     0.80600
O16         O  0.67635641  0.04127288  0.75586884    -0.55500
O17         O  0.62721753  0.99734054  0.81433718    -0.54000
O18         O  0.62735424  0.00635774  0.68924674    -0.54000
O19         O  0.62624441  0.93933076  0.74706231    -0.53100
C20         C  0.74537999  0.27306399  0.72317232     0.05700
C21         C  0.72348167  0.24528745  0.73049690     0.05700
C22         C  0.73078642  0.22338801  0.75827432     0.05700
C23         C  0.75860668  0.23066633  0.78013840     0.05700
C24         C  0.78049630  0.25845605  0.77283232     0.05700
C25         C  0.77319239  0.28034164  0.74504428     0.05700
O26         O  0.82715450  0.54112854  0.75584666    -0.54400
C27         C  0.84532818  0.43566571  0.74597458     0.78300
O28         O  0.92642022  0.50613522  0.71220309    -0.55500
C29         C  0.84522699  0.56806082  0.75744115     0.78200
C30         C  0.90849802  0.49612824  0.81779077     0.80600
Cd31       Cd  0.87684818  0.50189123  0.75161381     1.37500
O32         O  0.82721404  0.46257327  0.74756465    -0.54300
O33         O  0.87634265  0.49721133  0.81416634    -0.53200
C34         C  0.90827919  0.50765400  0.68531258     0.80600
O35         O  0.92656121  0.49777836  0.79085251    -0.55500
O36         O  0.87747781  0.43934579  0.74704566    -0.54000
O37         O  0.87737936  0.56443113  0.75628578    -0.54000
O38         O  0.87613827  0.50644421  0.68903502    -0.53100
O39         O  0.74799678  0.82691535  0.46255905    -0.54400
C40         C  0.75766183  0.84510243  0.56801409     0.78300
O41         O  0.79117125  0.92632449  0.49753809    -0.55500
C42         C  0.74621487  0.84499217  0.43564058     0.78200
C43         C  0.68564975  0.90811450  0.50753952     0.80600
Cd44       Cd  0.75192241  0.87662604  0.50180058     1.37500
O45         O  0.75598361  0.82698775  0.54111439    -0.54300
O46         O  0.68934229  0.87596968  0.50637262    -0.53200
C47         C  0.81811615  0.90826702  0.49595792     0.80600
O48         O  0.71255457  0.92623188  0.50599765    -0.55500
O49         O  0.75663256  0.87725321  0.56433002    -0.54000
O50         O  0.74713501  0.87715077  0.43928514    -0.54000
O51         O  0.81449891  0.87611477  0.49713984    -0.53100
C52         C  0.77300273  0.78049673  0.25839279     0.05700
C53         C  0.74519506  0.77308803  0.28022662     0.05700
C54         C  0.72337896  0.74526811  0.27283559     0.05700
C55         C  0.73077012  0.72345463  0.24501601     0.05700
C56         C  0.75857631  0.73085716  0.22317770     0.05700
C57         C  0.78038282  0.75868617  0.23056703     0.05700
O58         O  0.79098602  0.57702841  0.99764795    -0.54400
C59         C  0.68560500  0.59523356  0.00761357     0.78300
O60         O  0.75604456  0.67649029  0.04100583    -0.55500
C61         C  0.81792811  0.59507402  0.99595047     0.78200
C62         C  0.74605059  0.65831101  0.93553726     0.80600
Cd63       Cd  0.75180376  0.62677330  0.00177982     1.37500
O64         O  0.71252013  0.57713259  0.00605515    -0.54300
O65         O  0.74710756  0.62615943  0.93921387    -0.53200
C66         C  0.75766792  0.65844635  0.06795540     0.80600
O67         O  0.74769934  0.67641012  0.96244956    -0.55500
O68         O  0.68926001  0.62738033  0.00641695    -0.54000
O69         O  0.81432975  0.62723171  0.99701484    -0.54000
O70         O  0.75652457  0.62629041  0.06434687    -0.53100
O71         O  0.49778640  0.71257139  0.42635148    -0.54400
C72         C  0.50756197  0.81802117  0.40828886     0.78300
O73         O  0.54112541  0.74759853  0.32699440    -0.55500
C74         C  0.49616697  0.68564340  0.40827287     0.78200
C75         C  0.43559238  0.75758563  0.34513980     0.80600
Cd76       Cd  0.50184177  0.75183732  0.37667268     1.37500
O77         O  0.50594994  0.79108857  0.42635978    -0.54300
O78         O  0.43926029  0.75635977  0.37728292    -0.53200
C79         C  0.56805947  0.74608564  0.34506974     0.80600
O80         O  0.46251306  0.75609322  0.32703890    -0.55500
O81         O  0.50647028  0.81438666  0.37613556    -0.54000
O82         O  0.49722919  0.68928794  0.37611959    -0.54000
O83         O  0.56441761  0.74729493  0.37721678    -0.53100
O84         O  0.17654018  0.96250368  0.75584017    -0.54400
C85         C  0.15837353  0.06795063  0.74599000     0.78300
O86         O  0.07724064  0.99747650  0.71226197    -0.55500
C87         C  0.15847636  0.93556632  0.75744097     0.78200
C88         C  0.09520349  0.00749130  0.81782334     0.80600
Cd89       Cd  0.12683696  0.00172968  0.75163341     1.37500
O90         O  0.17647937  0.04103727  0.74756923    -0.54300
O91         O  0.12735769  0.00641238  0.81418484    -0.53200
C92         C  0.09536564  0.99597070  0.68535730     0.80600
O93         O  0.07713304  0.00583807  0.79089320    -0.55500
O94         O  0.12622277  0.06427875  0.74706790    -0.54000
O95         O  0.12632278  0.93918680  0.75629631    -0.54000
O96         O  0.12750826  0.99719191  0.68905464    -0.53100
O97         O  0.75620493  0.17639867  0.96229957    -0.54400
C98         C  0.74623422  0.15848828  0.06770827     0.78300
O99         O  0.71259068  0.07711437  0.99748419    -0.55500
C100        C  0.75769022  0.15831627  0.93536798     0.78200
C101        C  0.81811366  0.09505485  0.00740237     0.80600
Cd102      Cd  0.75193876  0.12674710  0.00158067     1.37500
O103        O  0.74784004  0.17651158  0.04074426    -0.54300
O104        O  0.81451172  0.12720816  0.00622001    -0.53200
C105        C  0.68567907  0.09522054  0.99591184     0.80600
O106        O  0.79116149  0.07701348  0.00582047    -0.55500
O107        O  0.74731998  0.12632734  0.06412840    -0.54000
O108        O  0.75646684  0.12616734  0.93901288    -0.54000
O109        O  0.68935865  0.12736778  0.99702166    -0.53100
O110        O  0.42672816  0.50595699  0.79101024    -0.54400
C111        C  0.40852535  0.49612654  0.68557370     0.78300
O112        O  0.32738161  0.46235568  0.75593299    -0.55500
C113        C  0.40867436  0.50746969  0.81796090     0.78200
C114        C  0.34535700  0.56794662  0.74618347     0.80600
Cd115      Cd  0.37700350  0.50172546  0.75180919     1.37500
O116        O  0.42663959  0.49760154  0.71248387    -0.54300
O117        O  0.37751414  0.56430529  0.74717117    -0.53200
C118        C  0.34548574  0.43543742  0.75744505     0.80600
O119        O  0.32729563  0.54101060  0.74785840    -0.55500
O120        O  0.37637912  0.49729713  0.68925661    -0.54000
O121        O  0.37652202  0.50625394  0.81435800    -0.54000
O122        O  0.37763296  0.43912212  0.75629911    -0.53100
O123        O  0.71243662  0.42655294  0.49741470    -0.54400
C124        C  0.81791299  0.40862990  0.50723837     0.78300
O125        O  0.74766161  0.32730967  0.54097784    -0.55500
C126        C  0.68552576  0.40843807  0.49597552     0.78200
C127        C  0.75748656  0.34532556  0.43536439     0.80600
Cd128      Cd  0.75176968  0.37693280  0.50160607     1.37500
O129        O  0.79095808  0.42667576  0.50570826    -0.54300
O130        O  0.75623423  0.37747385  0.43900892    -0.53200
C131        C  0.74619494  0.34542041  0.56789485     0.80600
O132        O  0.75603132  0.32725399  0.46230704    -0.55500
O133        O  0.81431874  0.37647437  0.50609587    -0.54000
O134        O  0.68920485  0.37629450  0.49720140    -0.54000
O135        O  0.74736661  0.37756609  0.56420288    -0.53100
O136        O  0.67674612  0.46263984  0.25574785    -0.54400
C137        C  0.65872090  0.56809221  0.24603099     0.78300
O138        O  0.57734119  0.49765659  0.21257871    -0.55500
C139        C  0.65865592  0.43572139  0.25737197     0.78200
C140        C  0.59554553  0.50767481  0.31806358     0.80600
Cd141      Cd  0.62706769  0.50192949  0.25179097     1.37500
O142        O  0.67678293  0.54115682  0.24770694    -0.54300
O143        O  0.62768763  0.50634381  0.31439370    -0.53200
C144        C  0.59537965  0.49616838  0.18561543     0.80600
O145        O  0.57744940  0.50629340  0.29113713    -0.55500
O146        O  0.62656460  0.56447062  0.24708011    -0.54000
O147        O  0.62650244  0.43938283  0.25636256    -0.54000
O148        O  0.62753292  0.49740814  0.18921007    -0.53100
O149        O  0.25581324  0.67673693  0.46259999    -0.54400
C150        C  0.24605262  0.65853634  0.56805817     0.78300
O151        O  0.21250801  0.57733930  0.49764527    -0.55500
C152        C  0.25747981  0.65866037  0.43567217     0.78200
C153        C  0.31806556  0.59554363  0.50749668     0.80600
Cd154      Cd  0.25178091  0.62702837  0.50183276     1.37500
O155        O  0.24762235  0.67665549  0.54115531    -0.54300
O156        O  0.31436530  0.62768920  0.50637536    -0.53200
C157        C  0.18557107  0.59540594  0.49602971     0.80600
O158        O  0.29116330  0.57742309  0.50594193    -0.55500
O159        O  0.24718562  0.62638910  0.56437164    -0.54000
O160        O  0.25644903  0.62650435  0.43930900    -0.54000
O161        O  0.18920278  0.62755836  0.49716435    -0.53100
O162        O  0.04110275  0.74777675  0.17648539    -0.54400
C163        C  0.93569721  0.75762477  0.15841974     0.78300
O164        O  0.00627429  0.79102152  0.07711064    -0.55500
C165        C  0.06802308  0.74597250  0.15841501     0.78200
C166        C  0.99592994  0.68559742  0.09516945     0.80600
Cd167      Cd  0.00186106  0.75178233  0.12678837     1.37500
O168        O  0.96261306  0.75578510  0.17648894    -0.54300
O169        O  0.99722233  0.68921457  0.12731717    -0.53200
C170        C  0.00780665  0.81796426  0.09517419     0.80600
O171        O  0.99744140  0.71254246  0.07710921    -0.55500
O172        O  0.93933620  0.75670741  0.12626309    -0.54000
O173        O  0.06438881  0.74690457  0.12625860    -0.54000
O174        O  0.00652906  0.81434499  0.12732231    -0.53100
C175        C  0.27291502  0.78021455  0.24507369     0.05700
C176        C  0.28028802  0.75839572  0.27289211     0.05700
C177        C  0.25846963  0.73057083  0.28026230     0.05700
C178        C  0.23067722  0.72316488  0.25841094     0.05700
C179        C  0.22331367  0.74498472  0.23058934     0.05700
C180        C  0.24512318  0.77281743  0.22321911     0.05700
O181        O  0.21279197  0.92665647  0.99760566    -0.54400
C182        C  0.31815486  0.90846597  0.00767361     0.78300
O183        O  0.24788571  0.82721341  0.04107478    -0.55500
C184        C  0.18585033  0.90860466  0.99597116     0.78200
C185        C  0.25769274  0.84538850  0.93556653     0.80600
Cd186      Cd  0.25196921  0.87692134  0.00182052     1.37500
O187        O  0.29123628  0.92656502  0.00616113    -0.54300
O188        O  0.25675656  0.87754237  0.93925763    -0.53200
C189        C  0.24611948  0.84526773  0.06800988     0.80600
O190        O  0.25593939  0.82728529  0.96246926    -0.55500
O191        O  0.31450754  0.87632064  0.00642361    -0.54000
O192        O  0.18944861  0.87644964  0.99710666    -0.54000
O193        O  0.24711451  0.87742630  0.06438196    -0.53100
O194        O  0.46256578  0.25576688  0.67650526    -0.54400
C195        C  0.56810298  0.24627677  0.65841835     0.78300
O196        O  0.49762295  0.21252259  0.57718668    -0.55500
C197        C  0.43565184  0.25736395  0.65840709     0.78200
C198        C  0.50751658  0.31810307  0.59529704     0.80600
Cd199      Cd  0.50188408  0.25183571  0.62684018     1.37500
O200        O  0.54118322  0.24787869  0.67651157    -0.54300
O201        O  0.50620842  0.31443780  0.62743936    -0.53200
C202        C  0.49625199  0.18558360  0.59527069     0.80600
O203        O  0.50615699  0.29116907  0.57720357    -0.55500
O204        O  0.56444142  0.24730562  0.62626767    -0.54000
O205        O  0.43932553  0.25634663  0.62625691    -0.54000
O206        O  0.49755453  0.18923751  0.62741434    -0.53100
C207        C  0.24517880  0.27293217  0.78018331     0.05700
C208        C  0.22329033  0.24513610  0.77289666     0.05700
C209        C  0.23057687  0.22325152  0.74510007     0.05700
C210        C  0.25837556  0.23053202  0.72320753     0.05700
C211        C  0.28027456  0.25831218  0.73051473     0.05700
C212        C  0.27298204  0.28021490  0.75829508     0.05700
O213        O  0.99785352  0.21251581  0.92675739    -0.54400
C214        C  0.00756643  0.31796926  0.90863701     0.78300
O215        O  0.04118405  0.24743891  0.82742120    -0.55500
C216        C  0.99615151  0.18559688  0.90867278     0.78200
C217        C  0.93566154  0.25754213  0.84543954     0.80600
Cd218      Cd  0.00187373  0.25177293  0.87706537     1.37500
O219        O  0.00586015  0.29106112  0.92673662    -0.54300
O220        O  0.93927869  0.25629743  0.87758841    -0.53200
C221        C  0.06811916  0.24600156  0.84549994     0.80600
O222        O  0.96261272  0.25606654  0.82738351    -0.55500
O223        O  0.00657160  0.31429983  0.87648524    -0.54000
O224        O  0.99715960  0.18924628  0.87651934    -0.54000
O225        O  0.06447115  0.24728199  0.87764433    -0.53100
C226        C  0.72338495  0.25850761  0.23035566     0.05700
C227        C  0.74526708  0.23072487  0.22299676     0.05700
C228        C  0.77307262  0.22338544  0.24485683     0.05700
C229        C  0.78037074  0.24521935  0.27268727     0.05700
C230        C  0.75848705  0.27299790  0.28005846     0.05700
C231        C  0.73069495  0.28034101  0.25818269     0.05700
O232        O  0.92671405  0.00592148  0.29093078    -0.54400
C233        C  0.90873582  0.99602684  0.18551755     0.78300
O234        O  0.82732654  0.96269738  0.25587140    -0.55500
C235        C  0.90861384  0.00762004  0.31783922     0.78200
C236        C  0.84555338  0.06817604  0.24579556     0.80600
Cd237      Cd  0.87705590  0.00190687  0.25164735     1.37500
O238        O  0.92678673  0.99774238  0.21245434    -0.54300
O239        O  0.87769618  0.06449755  0.24707812    -0.53200
C240        C  0.84536681  0.93574271  0.25749033     0.80600
O241        O  0.82744801  0.04125976  0.24727551    -0.55500
O242        O  0.87657802  0.99709186  0.18912479    -0.54000
O243        O  0.87646042  0.00661892  0.31417502    -0.54000
O244        O  0.87752301  0.93934074  0.25634897    -0.53100
O245        O  0.04112723  0.25583937  0.32682141    -0.54400
C246        C  0.93568218  0.24613992  0.34486350     0.78300
O247        O  0.00616425  0.21253929  0.42617701    -0.55500
C248        C  0.06804982  0.25745916  0.34490219     0.78200
C249        C  0.99607673  0.31807467  0.40805451     0.80600
Cd250      Cd  0.00185311  0.25181941  0.37650254     1.37500
O251        O  0.96261850  0.24775638  0.32679890    -0.54300
O252        O  0.99738559  0.31441375  0.37591186    -0.53200
C253        C  0.00761619  0.18559455  0.40810726     0.80600
O254        O  0.99750890  0.29114315  0.42614414    -0.55500
O255        O  0.93930528  0.24719867  0.37701755    -0.54000
O256        O  0.06440131  0.25642079  0.37705444    -0.54000
O257        O  0.00632814  0.18922890  0.37596135    -0.53100
C258        C  0.22338674  0.25838088  0.27275807     0.05700
C259        C  0.23067450  0.28022158  0.24492970     0.05700
C260        C  0.25847581  0.27288993  0.22305650     0.05700
C261        C  0.28036504  0.24511006  0.23040243     0.05700
C262        C  0.27306859  0.22327319  0.25823109     0.05700
C263        C  0.24527767  0.23060587  0.28011676     0.05700
O264        O  0.24765172  0.32722478  0.96233877    -0.54400
C265        C  0.25750364  0.34515446  0.06777577     0.78300
O266        O  0.29117878  0.42650980  0.99742366    -0.55500
C267        C  0.24614043  0.34530964  0.93541095     0.78200
C268        C  0.18564698  0.40854371  0.00743323     0.80600
Cd269      Cd  0.25183945  0.37687712  0.00163280     1.37500
O270        O  0.25587936  0.32712327  0.04081713    -0.54300
O271        O  0.18925572  0.37639521  0.00614264    -0.53200
C272        C  0.31809844  0.40840635  0.99594963     0.80600
O273        O  0.21260099  0.42659339  0.00597441    -0.55500
O274        O  0.25645251  0.37731534  0.06418473    -0.54000
O275        O  0.24732001  0.37745971  0.93906317    -0.54000
O276        O  0.31442662  0.37626193  0.99716716    -0.53100
O277        O  0.32697781  0.96250228  0.24768761    -0.54400
C278        C  0.34514416  0.06790917  0.25741885     0.78300
O279        O  0.42633793  0.99734209  0.29115091    -0.55500
C280        C  0.34502142  0.93555202  0.24605700     0.78200
C281        C  0.40841570  0.00744467  0.18563999     0.80600
Cd282      Cd  0.37671623  0.00169509  0.25181634     1.37500
O283        O  0.32704951  0.04099245  0.25582334    -0.54300
O284        O  0.37626036  0.00626669  0.18923901    -0.53200
C285        C  0.40824303  0.99595657  0.31808054     0.80600
O286        O  0.42645134  0.00589714  0.21259874    -0.55500
O287        O  0.37729638  0.06424384  0.25637351    -0.54000
O288        O  0.37717860  0.93914966  0.24714939    -0.54000
O289        O  0.37610054  0.99727988  0.31441740    -0.53100
C290        C  0.99520632  0.97332172  0.52275950     0.05700
C291        C  0.97334415  0.98071257  0.49497743     0.05700
C292        C  0.98070467  0.00852780  0.47314783     0.05700
C293        C  0.00854445  0.03034521  0.48048176     0.05700
C294        C  0.03040399  0.02294549  0.50826368     0.05700
C295        C  0.02304786  0.99513464  0.53010124     0.05700
C296        C  0.00868977  0.97317855  0.02281229     0.05700
C297        C  0.03047670  0.98058732  0.99497527     0.05700
C298        C  0.02305101  0.00839081  0.97315725     0.05700
C299        C  0.99521612  0.03018833  0.98056849     0.05700
C300        C  0.97341102  0.02277316  0.00838923     0.05700
C301        C  0.98084189  0.99496817  0.03020558     0.05700
C302        C  0.53044156  0.98058852  0.50837761     0.05700
C303        C  0.52315266  0.00841122  0.53022629     0.05700
C304        C  0.49537591  0.03031347  0.52289718     0.05700
C305        C  0.47350184  0.02299233  0.49510518     0.05700
C306        C  0.48078251  0.99516986  0.47325287     0.05700
C307        C  0.50857078  0.97327960  0.48057889     0.05700
O308        O  0.21271901  0.07692092  0.50566183    -0.54400
C309        C  0.31818415  0.09515576  0.49602608     0.78300
O310        O  0.24764004  0.17631823  0.46234907    -0.55500
C311        C  0.18577878  0.09498188  0.50728266     0.78200
C312        C  0.25753089  0.15816750  0.56793163     0.80600
Cd313      Cd  0.25193500  0.12665016  0.50164975     1.37500
O314        O  0.29128459  0.07703147  0.49756801    -0.54300
O315        O  0.25631844  0.12602242  0.56424554    -0.53200
C316        C  0.24621682  0.15824351  0.43540620     0.80600
O317        O  0.25609735  0.17627455  0.54101154    -0.55500
O318        O  0.31449009  0.12730137  0.49714921    -0.54000
O319        O  0.18939406  0.12713798  0.50622779    -0.54000
O320        O  0.24749447  0.12609616  0.43905156    -0.53100
C321        C  0.53041742  0.02288446  0.99515113     0.05700
C322        C  0.52304312  0.99508187  0.97331182     0.05700
C323        C  0.49525567  0.97321785  0.98070246     0.05700
C324        C  0.47346356  0.98055428  0.00855787     0.05700
C325        C  0.48082710  0.00836069  0.03039679     0.05700
C326        C  0.50861395  0.03022136  0.02299624     0.05700
O327        O  0.50603472  0.21252428  0.07681077    -0.54400
C328        C  0.49613036  0.31800968  0.09492566     0.78300
O329        O  0.46252132  0.24778219  0.17609789    -0.55500
C330        C  0.50763321  0.18561456  0.09491900     0.78200
C331        C  0.56812395  0.25752898  0.15798754     0.80600
Cd332      Cd  0.50187150  0.25181004  0.12646166     1.37500
O333        O  0.49769238  0.29109799  0.07681529    -0.54300
O334        O  0.56443902  0.25653147  0.12583761    -0.53200
C335        C  0.43561640  0.24609275  0.15799414     0.80600
O336        O  0.54121899  0.25582208  0.17609433    -0.55500
O337        O  0.49728274  0.31433997  0.12707224    -0.54000
O338        O  0.50650649  0.18928403  0.12706673    -0.54000
O339        O  0.43930191  0.24710781  0.12584461    -0.53100
C340        C  0.48073469  0.50852853  0.97331119     0.05700
C341        C  0.50851841  0.53040051  0.98069041     0.05700
C342        C  0.53031761  0.52307534  0.00854074     0.05700
C343        C  0.52296340  0.49526978  0.03038540     0.05700
C344        C  0.49517747  0.47340332  0.02299860     0.05700
C345        C  0.47336712  0.48073106  0.99515946     0.05700
C346        C  0.00844934  0.53035142  0.52272280     0.05700
C347        C  0.98060523  0.50853382  0.53004639     0.05700
C348        C  0.97326401  0.48072799  0.50819642     0.05700
C349        C  0.99513886  0.47333856  0.48041904     0.05700
C350        C  0.02298160  0.49516120  0.47310438     0.05700
C351        C  0.03032969  0.52296902  0.49494859     0.05700
C352        C  0.00852598  0.47339788  0.98049841     0.05700
C353        C  0.98069523  0.49520392  0.97309651     0.05700
C354        C  0.97327351  0.52300370  0.99492463     0.05700
C355        C  0.99506011  0.53039778  0.02276331     0.05700
C356        C  0.02290159  0.50859852  0.03014927     0.05700
C357        C  0.03033003  0.48079923  0.00832150     0.05700
O358        O  0.07695133  0.50587743  0.21240287    -0.54400
C359        C  0.09510292  0.49603195  0.31779440     0.78300
O360        O  0.17628717  0.46235319  0.24726422    -0.55500
C361        C  0.09500483  0.50755073  0.18546236     0.78200
C362        C  0.15834528  0.56789437  0.25742163     0.80600
Cd363      Cd  0.12667486  0.50171251  0.25159991     1.37500
O364        O  0.07700829  0.49768013  0.29088201    -0.54300
O365        O  0.12619120  0.56428592  0.25625644    -0.53200
C366        C  0.15818251  0.43543505  0.24580153     0.80600
O367        O  0.17639362  0.54094291  0.25582831    -0.55500
O368        O  0.12725590  0.49706716  0.31413282    -0.54000
O369        O  0.12716183  0.50646206  0.18906835    -0.54000
O370        O  0.12603929  0.43911593  0.24707272    -0.53100
C371        C  0.47329015  0.52307834  0.50833924     0.05700
C372        C  0.49517404  0.53037677  0.48054418     0.05700
C373        C  0.52296393  0.50848182  0.47323132     0.05700
C374        C  0.53023426  0.48066647  0.49509414     0.05700
C375        C  0.50835204  0.47335974  0.52288773     0.05700
C376        C  0.48057310  0.49526705  0.53020282     0.05700
O377        O  0.00617786  0.71263504  0.57679515    -0.54400
C378        C  0.99612909  0.81799721  0.59486507     0.78300
O379        O  0.96262396  0.74769127  0.67621561    -0.55500
C380        C  0.00761972  0.68567875  0.59484365     0.78200
C381        C  0.06812492  0.75754213  0.65813962     0.80600
Cd382      Cd  0.00189569  0.75183604  0.62651401     1.37500
O383        O  0.99757948  0.79104525  0.57680958    -0.54300
O384        O  0.06449430  0.75642549  0.62598777    -0.53200
C385        C  0.93567813  0.74612070  0.65816499     0.80600
O386        O  0.04118247  0.75596248  0.67619832    -0.55500
O387        O  0.99740732  0.81439124  0.62701394    -0.54000
O388        O  0.00636149  0.68928023  0.62699399    -0.54000
O389        O  0.93930175  0.74725276  0.62601290    -0.53100
C390        C  0.23066238  0.78026216  0.75850877     0.05700
C391        C  0.25848041  0.77293721  0.78035808     0.05700
C392        C  0.28031428  0.74510876  0.77303062     0.05700
C393        C  0.27295062  0.72321905  0.74526461     0.05700
C394        C  0.24514047  0.73055865  0.72341171     0.05700
C395        C  0.22330165  0.75838629  0.73072938     0.05700
O396        O  0.54113385  0.75606432  0.82691164    -0.54400
C397        C  0.43570649  0.74605286  0.84500794     0.78300
O398        O  0.50585364  0.71250066  0.92626134    -0.55500
C399        C  0.56806306  0.75759416  0.84499030     0.78200
C400        C  0.49615809  0.81803323  0.90819653     0.80600
Cd401      Cd  0.50188692  0.75181147  0.87659528     1.37500
O402        O  0.46263499  0.74756947  0.82692241    -0.54300
O403        O  0.49707001  0.81437405  0.87603993    -0.53200
C404        C  0.50760466  0.68558138  0.90818114     0.80600
O405        O  0.49795633  0.79111497  0.92627214    -0.55500
O406        O  0.43934452  0.74724979  0.87715503    -0.54000
O407        O  0.56442829  0.75639587  0.87713778    -0.54000
O408        O  0.50664821  0.68924254  0.87602624    -0.53100
C409        C  0.31212980  0.74111243  0.79181986    -0.15000
C410        C  0.34011534  0.74027016  0.80488540     0.09000
C411        C  0.37364641  0.74131093  0.81845310     0.10900
C412        C  0.40226164  0.74319530  0.82995587    -0.15900
C413        C  0.10156719  0.76038377  0.67323672    -0.15000
C414        C  0.13014140  0.76226204  0.68486593     0.09000
C415        C  0.16360349  0.76329539  0.69863826     0.10900
C416        C  0.19152742  0.76243482  0.71185389    -0.15900
C417        C  0.07990832  0.51046459  0.15204830    -0.15000
C418        C  0.06835477  0.51240221  0.12345260     0.09000
C419        C  0.05474021  0.51348947  0.08995099     0.10900
C420        C  0.04165664  0.51265159  0.06196832    -0.15900
C421        C  0.01046021  0.65225509  0.57975100    -0.15000
C422        C  0.01232524  0.62364539  0.56820845     0.09000
C423        C  0.01333774  0.59013493  0.55460829     0.10900
C424        C  0.01247041  0.56215065  0.54151923    -0.15900
C425        C  0.08005539  0.49319921  0.35123831    -0.15000
C426        C  0.06853251  0.49131657  0.37985066     0.09000
C427        C  0.05492602  0.49027203  0.41335776     0.10900
C428        C  0.04181384  0.49112326  0.44132748    -0.15900
C429        C  0.51257932  0.56216144  0.96181863    -0.15000
C430        C  0.51343072  0.59009439  0.94860721     0.09000
C431        C  0.51236883  0.62355299  0.93486078     0.10900
C432        C  0.51046365  0.65213935  0.92325270    -0.15900
C433        C  0.49115998  0.44160556  0.04179423    -0.15000
C434        C  0.49031615  0.41361545  0.05486790     0.09000
C435        C  0.49136951  0.38009023  0.06842205     0.10900
C436        C  0.49326739  0.35146127  0.07990622    -0.15900
C437        C  0.49329783  0.85147310  0.92327451    -0.15000
C438        C  0.49139218  0.88005912  0.93488387     0.09000
C439        C  0.49033046  0.91351917  0.94862879     0.10900
C440        C  0.49118519  0.94145372  0.96183711    -0.15900
C441        C  0.51050819  0.15216547  0.07989624    -0.15000
C442        C  0.51241623  0.12353785  0.06841001     0.09000
C443        C  0.51347852  0.09001340  0.05485553     0.10900
C444        C  0.51263683  0.06202202  0.04178440    -0.15900
C445        C  0.44172950  0.04185946  0.49110990    -0.15000
C446        C  0.41377617  0.05499828  0.49027898     0.09000
C447        C  0.38026800  0.06862881  0.49133031     0.10900
C448        C  0.35165466  0.08014356  0.49320798    -0.15900
C449        C  0.99325446  0.85142071  0.57978067    -0.15000
C450        C  0.99135874  0.88002734  0.56823805     0.09000
C451        C  0.99031742  0.91353451  0.55463394     0.10900
C452        C  0.99117465  0.94151812  0.54154505    -0.15900
C453        C  0.15234577  0.07989513  0.51011426    -0.15000
C454        C  0.12374002  0.06836956  0.51200957     0.09000
C455        C  0.09021694  0.05478212  0.51308098     0.10900
C456        C  0.06223248  0.04171327  0.51225983    -0.15900
C457        C  0.42353339  0.01031808  0.15221727    -0.15000
C458        C  0.43514037  0.01221889  0.12363172     0.09000
C459        C  0.44885077  0.01326700  0.09015396     0.10900
C460        C  0.46201343  0.01241038  0.06219943    -0.15900
C461        C  0.42328907  0.99310885  0.35153763    -0.15000
C462        C  0.43488910  0.99124586  0.38012750     0.09000
C463        C  0.44864402  0.99024390  0.41358775     0.10900
C464        C  0.46187323  0.99112450  0.44150850    -0.15900
C465        C  0.06214798  0.46200726  0.01240283    -0.15000
C466        C  0.09011286  0.44888278  0.01327733     0.09000
C467        C  0.12361622  0.43521335  0.01223656     0.10900
C468        C  0.15220976  0.42363976  0.01032984    -0.15900
C469        C  0.35156424  0.42344280  0.99310963    -0.15000
C470        C  0.38016432  0.43500061  0.99123292     0.09000
C471        C  0.41365592  0.44869201  0.99020687     0.10900
C472        C  0.44159618  0.46186453  0.99108225    -0.15900
C473        C  0.17321819  0.40196980  0.24292559    -0.15000
C474        C  0.18480753  0.37337384  0.24103678     0.09000
C475        C  0.19855043  0.33990320  0.24000681     0.10900
C476        C  0.21176979  0.31197411  0.24087471    -0.15900
C477        C  0.24128598  0.21176945  0.31191418    -0.15000
C478        C  0.24045145  0.19859864  0.33987132     0.09000
C479        C  0.24149363  0.18489473  0.37335374     0.10900
C480        C  0.24337224  0.17331004  0.40195501    -0.15900
C481        C  0.31213744  0.24108885  0.21151790    -0.15000
C482        C  0.34007276  0.24025904  0.19832433     0.09000
C483        C  0.37355640  0.24133114  0.18460814     0.10900
C484        C  0.40215164  0.24323599  0.17303632    -0.15900
C485        C  0.29189574  0.19148288  0.26223288    -0.15000
C486        C  0.30499305  0.16350425  0.26307687     0.09000
C487        C  0.31858379  0.12998362  0.26205279     0.10900
C488        C  0.33009776  0.10136349  0.26020441    -0.15900
C489        C  0.26032703  0.33003119  0.10118806    -0.15000
C490        C  0.26220763  0.31845175  0.12978358     0.09000
C491        C  0.26326493  0.30480633  0.16327520     0.10900
C492        C  0.26244553  0.29169035  0.19125074    -0.15900
C493        C  0.99318626  0.35153011  0.42310066    -0.15000
C494        C  0.99127652  0.38013255  0.43467608     0.09000
C495        C  0.99022488  0.41361264  0.44838164     0.10900
C496        C  0.99108430  0.44156206  0.46156444    -0.15900
C497        C  0.01050779  0.15215236  0.42317742    -0.15000
C498        C  0.01242128  0.12355575  0.43476176     0.09000
C499        C  0.01347486  0.09007726  0.44846607     0.10900
C500        C  0.01261127  0.06212613  0.46164083    -0.15900
C501        C  0.10149683  0.26026505  0.32983747    -0.15000
C502        C  0.13010355  0.26213293  0.31830412     0.09000
C503        C  0.16361743  0.26318252  0.30468840     0.10900
C504        C  0.19158778  0.26235986  0.29158334    -0.15900
C505        C  0.96208354  0.99090060  0.06202225    -0.15000
C506        C  0.94899954  0.99005680  0.09000555     0.09000
C507        C  0.93538718  0.99114711  0.12350881     0.10900
C508        C  0.92383523  0.99309494  0.15210543    -0.15900
C509        C  0.96188795  0.01257756  0.44136661    -0.15000
C510        C  0.94878166  0.01342713  0.41339622     0.09000
C511        C  0.93517765  0.01236960  0.37989124     0.10900
C512        C  0.92365621  0.01047120  0.35128097    -0.15900
C513        C  0.79196893  0.19162933  0.24079073    -0.15000
C514        C  0.80518486  0.16369950  0.23992667     0.09000
C515        C  0.81892764  0.13023000  0.24097541     0.10900
C516        C  0.83051788  0.10163747  0.24288816    -0.15900
C517        C  0.81217052  0.24122841  0.29150417    -0.15000
C518        C  0.84013904  0.24039855  0.30460857     0.09000
C519        C  0.87364781  0.24144590  0.31823276     0.10900
C520        C  0.90224728  0.24331883  0.32977914    -0.15900
C521        C  0.69160655  0.26253414  0.21148720    -0.15000
C522        C  0.66366776  0.26336433  0.19830373     0.09000
C523        C  0.63018322  0.26229119  0.18459520     0.10900
C524        C  0.60158772  0.26038570  0.17302690    -0.15900
C525        C  0.01042408  0.35141545  0.92367214    -0.15000
C526        C  0.01233856  0.38004283  0.93515954     0.09000
C527        C  0.01341874  0.41357365  0.94870049     0.10900
C528        C  0.01258096  0.44157733  0.96174746    -0.15900
C529        C  0.99328808  0.15216018  0.92372635    -0.15000
C530        C  0.99137692  0.12353864  0.93522682     0.09000
C531        C  0.99030611  0.09001228  0.94877713     0.10900
C532        C  0.99115268  0.06201029  0.96182477    -0.15900
C533        C  0.19153940  0.24112429  0.79182085    -0.15000
C534        C  0.16362264  0.24026144  0.80505386     0.09000
C535        C  0.13015707  0.24127620  0.81882099     0.10900
C536        C  0.10157386  0.24314554  0.83043175    -0.15900
C537        C  0.24120268  0.29180789  0.81194653    -0.15000
C538        C  0.24037441  0.30498293  0.83989462     0.09000
C539        C  0.24142279  0.31867300  0.87337099     0.10900
C540        C  0.24330320  0.33024949  0.90196833    -0.15900
C541        C  0.26032300  0.17319619  0.60140151    -0.15000
C542        C  0.26217446  0.18475683  0.63001301     0.09000
C543        C  0.26320122  0.19845250  0.66349651     0.10900
C544        C  0.26236278  0.21164303  0.69144301    -0.15900
C545        C  0.51032760  0.35156661  0.58025532    -0.15000
C546        C  0.51218071  0.38017211  0.56868092     0.09000
C547        C  0.51319575  0.41365027  0.55496862     0.10900
C548        C  0.51234489  0.44159232  0.54177114    -0.15900
C549        C  0.49138007  0.06209110  0.54176246    -0.15000
C550        C  0.49053504  0.09003969  0.55494570     0.09000
C551        C  0.49156437  0.12352148  0.56864613     0.10900
C552        C  0.49343078  0.15212646  0.58021877    -0.15900
C553        C  0.40218705  0.26013068  0.67344910    -0.15000
C554        C  0.37357019  0.26198560  0.68496503     0.09000
C555        C  0.34004940  0.26304288  0.69857275     0.10900
C556        C  0.31207760  0.26224520  0.71168069    -0.15900
C557        C  0.26052240  0.83034401  0.90211022    -0.15000
C558        C  0.26239171  0.81875972  0.87351080     0.09000
C559        C  0.26341511  0.80503637  0.84004205     0.10900
C560        C  0.26254392  0.79182946  0.81210618    -0.15900
C561        C  0.44168172  0.96172955  0.01263181    -0.15000
C562        C  0.41371747  0.94862738  0.01351442     0.09000
C563        C  0.38020383  0.93502295  0.01248417     0.10900
C564        C  0.35159834  0.92350580  0.01057956    -0.15900
C565        C  0.06230954  0.96184319  0.99090450    -0.15000
C566        C  0.09030131  0.94879361  0.99004601     0.09000
C567        C  0.12382916  0.93522311  0.99111622     0.10900
C568        C  0.15243212  0.92370059  0.99305000    -0.15900
C569        C  0.24321159  0.83016582  0.10143400    -0.15000
C570        C  0.24128499  0.81855165  0.13001689     0.09000
C571        C  0.24021414  0.80482365  0.16348261     0.10900
C572        C  0.24106368  0.79164473  0.19143181    -0.15900
C573        C  0.29167449  0.81203990  0.24104859    -0.15000
C574        C  0.30475232  0.84002584  0.24021281     0.09000
C575        C  0.31836130  0.87353564  0.24127879     0.10900
C576        C  0.32991437  0.90213440  0.24318535    -0.15900
C577        C  0.17344751  0.60132190  0.26033066    -0.15000
C578        C  0.18503593  0.62991188  0.26225778     0.09000
C579        C  0.19872364  0.66339993  0.26332697     0.10900
C580        C  0.21186943  0.69136060  0.26247425    -0.15900
C581        C  0.10145241  0.74308583  0.17349643    -0.15000
C582        C  0.13004648  0.74116449  0.18504672     0.09000
C583        C  0.16354994  0.74008689  0.19867820     0.10900
C584        C  0.19151626  0.74092920  0.21178479    -0.15900
C585        C  0.99092807  0.56216577  0.04160465    -0.15000
C586        C  0.99002269  0.59011282  0.05477913     0.09000
C587        C  0.99105594  0.62358487  0.06848839     0.10900
C588        C  0.99298306  0.65217246  0.08008473    -0.15900
C589        C  0.01075997  0.85138923  0.08009348    -0.15000
C590        C  0.01269247  0.87997905  0.06850426     0.09000
C591        C  0.01373072  0.91345420  0.05480601     0.10900
C592        C  0.01282641  0.94140552  0.04164125    -0.15900
C593        C  0.24112716  0.71173092  0.69163316    -0.15000
C594        C  0.24028020  0.69863060  0.66365441     0.09000
C595        C  0.24132115  0.68504807  0.63014037     0.10900
C596        C  0.24320464  0.67354932  0.60151494    -0.15900
C597        C  0.35154230  0.58052172  0.51031934    -0.15000
C598        C  0.38014037  0.56895181  0.51218774     0.09000
C599        C  0.41361876  0.55522023  0.51321786     0.10900
C600        C  0.44154071  0.54200108  0.51236403    -0.15900
C601        C  0.15212987  0.58031965  0.49312595    -0.15000
C602        C  0.12354877  0.56871881  0.49119373     0.09000
C603        C  0.09007153  0.55498741  0.49010420     0.10900
C604        C  0.06213101  0.54180623  0.49092781    -0.15900
C605        C  0.26032960  0.67372399  0.40224004    -0.15000
C606        C  0.26223338  0.68522549  0.37361713     0.09000
C607        C  0.26330673  0.69877166  0.34009037     0.10900
C608        C  0.26248007  0.71181947  0.31208603    -0.15900
C609        C  0.58026732  0.49329530  0.15219252    -0.15000
C610        C  0.56866294  0.49140131  0.12360692     0.09000
C611        C  0.55495247  0.49036328  0.09013101     0.10900
C612        C  0.54178625  0.49122495  0.06218015    -0.15900
C613        C  0.58050074  0.51052566  0.35152414    -0.15000
C614        C  0.56889590  0.51238996  0.38011447     0.09000
C615        C  0.55512938  0.51339387  0.41357290     0.10900
C616        C  0.54188784  0.51251747  0.44149044    -0.15900
C617        C  0.67370735  0.40226951  0.26015258    -0.15000
C618        C  0.68521796  0.37364824  0.26200301     0.09000
C619        C  0.69879769  0.34012385  0.26303191     0.10900
C620        C  0.71188273  0.31213942  0.26218969    -0.15900
C621        C  0.76248075  0.29182226  0.31186240    -0.15000
C622        C  0.76330452  0.30498230  0.33982527     0.09000
C623        C  0.76224057  0.31867566  0.37331188     0.10900
C624        C  0.76034346  0.33025587  0.40191458    -0.15900
C625        C  0.65205943  0.42346039  0.49316155    -0.15000
C626        C  0.62345149  0.43498950  0.49129675     0.09000
C627        C  0.58994950  0.44863740  0.49026306     0.10900
C628        C  0.56200172  0.46178807  0.49110264    -0.15900
C629        C  0.85133882  0.42373321  0.51006387    -0.15000
C630        C  0.87993959  0.43527302  0.51194744     0.09000
C631        C  0.91345776  0.44887380  0.51300529     0.10900
C632        C  0.94143855  0.46195103  0.51218071    -0.15900
C633        C  0.29178803  0.69142011  0.74125709    -0.15000
C634        C  0.30496071  0.66346810  0.74043178     0.09000
C635        C  0.31867145  0.62998527  0.74149111     0.10900
C636        C  0.33026532  0.60139137  0.74337030    -0.15900
C637        C  0.33044527  0.40196773  0.76024628    -0.15000
C638        C  0.31885369  0.37337168  0.76209996     0.09000
C639        C  0.30510908  0.33990142  0.76312655     0.10900
C640        C  0.29188909  0.31197306  0.76228764    -0.15900
C641        C  0.42376298  0.51035149  0.85138331    -0.15000
C642        C  0.43529933  0.51226828  0.87998814     0.09000
C643        C  0.44889498  0.51334475  0.91349984     0.10900
C644        C  0.46197160  0.51252240  0.94148678    -0.15900
C645        C  0.42354334  0.49333476  0.65210915    -0.15000
C646        C  0.43504136  0.49148365  0.62348252     0.09000
C647        C  0.44862796  0.49045723  0.58996296     0.10900
C648        C  0.46173434  0.49129299  0.56198800    -0.15900
C649        C  0.74339655  0.17361941  0.10111523    -0.15000
C650        C  0.74151266  0.18519587  0.12971170     0.09000
C651        C  0.74045970  0.19882894  0.16320784     0.10900
C652        C  0.74128710  0.21193323  0.19118830    -0.15900
C653        C  0.56218906  0.04174767  0.99106020    -0.15000
C654        C  0.59012717  0.05492275  0.99018102     0.09000
C655        C  0.62361614  0.06862052  0.99120671     0.10900
C656        C  0.65221348  0.08018287  0.99308098    -0.15900
C657        C  0.94158823  0.04155518  0.01247271    -0.15000
C658        C  0.91362372  0.05468064  0.01332959     0.09000
C659        C  0.88012677  0.06835911  0.01225505     0.10900
C660        C  0.85154068  0.07994446  0.01032002    -0.15900
C661        C  0.21185547  0.81206537  0.76250383    -0.15000
C662        C  0.19874246  0.84003747  0.76332864     0.09000
C663        C  0.18511082  0.87353852  0.76225391     0.10900
C664        C  0.17355911  0.90213886  0.76033496    -0.15900
C665        C  0.17340896  0.10140695  0.74318771    -0.15000
C666        C  0.18493916  0.13001961  0.74132870     0.09000
C667        C  0.19857288  0.16352118  0.74029359     0.10900
C668        C  0.21171312  0.19147979  0.74112490    -0.15900
C669        C  0.08035550  0.99309663  0.65188846    -0.15000
C670        C  0.06880090  0.99120127  0.62328301     0.09000
C671        C  0.05510452  0.99016781  0.58980152     0.10900
C672        C  0.04191878  0.99104636  0.56186081    -0.15900
C673        C  0.04183248  0.01247878  0.94134587    -0.15000
C674        C  0.05494496  0.01334420  0.91337102     0.09000
C675        C  0.06858085  0.01228742  0.87986695     0.10900
C676        C  0.08012943  0.01037441  0.85126106    -0.15900
C677        C  0.31207351  0.76247983  0.29173305    -0.15000
C678        C  0.34002512  0.76336029  0.30488237     0.09000
C679        C  0.37352550  0.76233466  0.31855342     0.10900
C680        C  0.40212887  0.76044930  0.33010276    -0.15900
C681        C  0.49120742  0.56215590  0.46169882    -0.15000
C682        C  0.49038928  0.59011573  0.44855209     0.09000
C683        C  0.49145007  0.62360310  0.43489674     0.10900
C684        C  0.49333596  0.65220617  0.42333894    -0.15900
C685        C  0.51041438  0.85145320  0.42336414    -0.15000
C686        C  0.51231048  0.88005212  0.43493003     0.09000
C687        C  0.51337341  0.91353727  0.44859282     0.10900
C688        C  0.51254970  0.94149663  0.46174016    -0.15900
C689        C  0.94144593  0.54176106  0.99086214    -0.15000
C690        C  0.91346147  0.55483039  0.99001483     0.09000
C691        C  0.87994274  0.56842769  0.99109720     0.10900
C692        C  0.85134514  0.57996810  0.99303520    -0.15900
C693        C  0.65215866  0.58019364  0.01051521    -0.15000
C694        C  0.62355651  0.56866416  0.01242616     0.09000
C695        C  0.59005117  0.55503593  0.01347197     0.10900
C696        C  0.56209401  0.54191392  0.01260354    -0.15900
C697        C  0.76265648  0.71204126  0.19138683    -0.15000
C698        C  0.76353147  0.69887760  0.16343112     0.09000
C699        C  0.76248924  0.68516567  0.12995950     0.10900
C700        C  0.76057695  0.67355563  0.10137419    -0.15900
C701        C  0.83025286  0.90232215  0.26039571    -0.15000
C702        C  0.81865563  0.87373626  0.26230943     0.09000
C703        C  0.80496118  0.84025202  0.26335502     0.10900
C704        C  0.79181251  0.81229480  0.26248002    -0.15900
C705        C  0.69157962  0.74118315  0.29165553    -0.15000
C706        C  0.66361844  0.74030173  0.30478774     0.09000
C707        C  0.63011253  0.74132864  0.31844771     0.10900
C708        C  0.60151043  0.74321737  0.33000294    -0.15900
C709        C  0.71201876  0.69162562  0.24098135    -0.15000
C710        C  0.69894654  0.66363647  0.24015315     0.09000
C711        C  0.68534688  0.63012305  0.24123566     0.10900
C712        C  0.67380685  0.60151930  0.24315407    -0.15900
C713        C  0.81219317  0.76274365  0.21177891    -0.15000
C714        C  0.84016573  0.76357680  0.19868013     0.09000
C715        C  0.87367275  0.76247847  0.18505246     0.10900
C716        C  0.90226771  0.76053555  0.17350276    -0.15900
C717        C  0.85155130  0.92336294  0.49304976    -0.15000
C718        C  0.88013122  0.93496744  0.49113232     0.09000
C719        C  0.91360863  0.94869719  0.49007518     0.10900
C720        C  0.94154859  0.96187536  0.49092963    -0.15900
C721        C  0.65217811  0.92313950  0.51039181    -0.15000
C722        C  0.62358235  0.93471190  0.51226908     0.09000
C723        C  0.59010570  0.94844489  0.51329184     0.10900
C724        C  0.56218565  0.96166463  0.51242234    -0.15900
C725        C  0.74117117  0.79182819  0.31205704    -0.15000
C726        C  0.74034978  0.80487285  0.34006307     0.09000
C727        C  0.74143986  0.81842138  0.37358932     0.10900
C728        C  0.74335731  0.82992589  0.40220968    -0.15900
C729        C  0.96171800  0.51260970  0.56180207    -0.15000
C730        C  0.94852106  0.51347652  0.58974067     0.09000
C731        C  0.93481936  0.51243199  0.62322267     0.10900
C732        C  0.92327056  0.51053082  0.65183245    -0.15900
C733        C  0.96191028  0.49112514  0.94128845    -0.15000
C734        C  0.94878985  0.49026560  0.91331862     0.09000
C735        C  0.93514110  0.49132733  0.87982177     0.10900
C736        C  0.92358173  0.49324332  0.85122185    -0.15900
C737        C  0.79204654  0.31211734  0.74106532    -0.15000
C738        C  0.80517339  0.34008128  0.74024104     0.09000
C739        C  0.81878850  0.37358918  0.74129157     0.10900
C740        C  0.83030388  0.40220585  0.74316374    -0.15900
C741        C  0.69166959  0.24135484  0.71168328    -0.15000
C742        C  0.66369463  0.24056019  0.69858632     0.09000
C743        C  0.63017465  0.24162632  0.68498358     0.10900
C744        C  0.60156101  0.24349293  0.67346612    -0.15900
C745        C  0.74137874  0.29195124  0.69140965    -0.15000
C746        C  0.74053470  0.30514138  0.66346361     0.09000
C747        C  0.74155957  0.31883675  0.62997989     0.10900
C748        C  0.74340926  0.33039541  0.60136728    -0.15900
C749        C  0.81226198  0.26246139  0.79173012    -0.15000
C750        C  0.84018306  0.26331290  0.80495066     0.09000
C751        C  0.87364653  0.26228302  0.81871865     0.10900
C752        C  0.90222186  0.26040342  0.83034267    -0.15900
C753        C  0.76259965  0.21179645  0.81190027    -0.15000
C754        C  0.76344589  0.19863100  0.83985116     0.09000
C755        C  0.76241510  0.18495123  0.87333062     0.10900
C756        C  0.76053975  0.17337817  0.90192875    -0.15900
C757        C  0.57997859  0.99322108  0.85136554    -0.15000
C758        C  0.56844979  0.99130420  0.87997438     0.09000
C759        C  0.55486745  0.99023818  0.91349204     0.10900
C760        C  0.54180032  0.99107420  0.94148445    -0.15900
C761        C  0.54198375  0.01240227  0.56201006    -0.15000
C762        C  0.55509024  0.01324172  0.58998246     0.09000
C763        C  0.56868119  0.01220767  0.62349666     0.10900
C764        C  0.58018439  0.01034359  0.65211803    -0.15900
C765        C  0.67329277  0.10165426  0.76025032    -0.15000
C766        C  0.68489054  0.13024717  0.76210697     0.09000
C767        C  0.69864536  0.16371236  0.76313262     0.10900
C768        C  0.71187354  0.19163626  0.76228581    -0.15900
C769        C  0.79189710  0.69158468  0.76248239    -0.15000
C770        C  0.80499937  0.66360807  0.76331522     0.09000
C771        C  0.81861627  0.63009990  0.76224966     0.10900
C772        C  0.83015533  0.60149406  0.76033622    -0.15900
C773        C  0.76264908  0.79189665  0.69157859    -0.15000
C774        C  0.76348209  0.80499225  0.66359800     0.09000
C775        C  0.76241789  0.81857665  0.63008606     0.10900
C776        C  0.76051814  0.83008086  0.60146510    -0.15900
C777        C  0.69163465  0.76256873  0.79177916    -0.15000
C778        C  0.66364906  0.76341273  0.80484844     0.09000
C779        C  0.63011891  0.76236430  0.81842235     0.10900
C780        C  0.60150533  0.76046789  0.82993074    -0.15900
C781        C  0.67350844  0.90225920  0.74331961    -0.15000
C782        C  0.68510921  0.87366974  0.74143445     0.09000
C783        C  0.69882238  0.84018858  0.74037228     0.10900
C784        C  0.71199204  0.81223673  0.74120015    -0.15900
C785        C  0.74120304  0.71184856  0.81207661    -0.15000
C786        C  0.74032044  0.69865259  0.84001569     0.09000
C787        C  0.74133500  0.68493899  0.87348684     0.10900
C788        C  0.74320596  0.67335773  0.90208550    -0.15900
C789        C  0.81225221  0.74120683  0.71183292    -0.15000
C790        C  0.84018672  0.74034761  0.69863655     0.09000
C791        C  0.87365932  0.74138626  0.68488755     0.10900
C792        C  0.90223845  0.74327116  0.67326897    -0.15900
loop_ 
_geom_bond_atom_site_label_1 
_geom_bond_atom_site_label_2 
_geom_bond_distance 
_geom_bond_site_symmetry_2 
_ccdc_geom_bond_type 
C1            C2   1.409       .  A
C1            C6   1.409       .  A
C1          C769   1.450       .  S
C2            C3   1.409       .  A
C2          C789   1.450       .  S
C3            C4   1.409       .  A
C3          C773   1.449       .  S
C4            C5   1.409       .  A
C4          C784   1.450       .  S
C5            C6   1.409       .  A
C5          C777   1.450       .  S
C6          C785   1.450       .  S
O7           C10   1.267       .  A
O7          Cd12   2.475       .  S
C8          C757   1.435       .  S
C8           O17   1.263       .  A
C8           O13   1.267       .  A
O9           C15   1.267       .  A
O9          Cd12   2.476   1_565  S
C10         C764   1.435       .  S
C10          O18   1.263       .  A
C11         C765   1.436       .  S
C11          O16   1.267       .  A
C11          O14   1.263       .  A
Cd12         O19   2.448   1_545  S
Cd12         O18   2.446       .  S
Cd12         O17   2.446   1_545  S
Cd12         O13   2.476   1_545  S
Cd12         O16   2.476       .  S
Cd12         O14   2.448       .  S
C15         C781   1.435       .  S
C15          O19   1.263       .  A
C20          C21   1.409       .  A
C20          C25   1.409       .  A
C20         C745   1.450       .  S
C21          C22   1.409       .  A
C21         C741   1.450       .  S
C22          C23   1.409       .  A
C22         C768   1.450       .  S
C23          C24   1.409       .  A
C23         C753   1.450       .  S
C24          C25   1.409       .  A
C24         C749   1.450       .  S
C25         C737   1.450       .  S
O26          C29   1.267       .  A
O26         Cd31   2.475       .  S
C27         C740   1.435       .  S
C27          O36   1.263       .  A
C27          O32   1.267       .  A
O28          C34   1.267       .  A
O28         Cd31   2.476       .  S
C29         C772   1.435       .  S
C29          O37   1.263       .  A
C30         C736   1.435       .  S
C30          O35   1.267       .  A
C30          O33   1.263       .  A
Cd31         O38   2.448       .  S
Cd31         O37   2.446       .  S
Cd31         O36   2.446       .  S
Cd31         O32   2.475       .  S
Cd31         O35   2.476       .  S
Cd31         O33   2.447       .  S
C34         C732   1.435       .  S
C34          O38   1.263       .  A
O39          C42   1.267       .  A
O39         Cd44   2.475       .  S
C40         C776   1.435       .  S
C40          O49   1.263       .  A
C40          O45   1.267       .  A
O41          C47   1.267       .  A
O41         Cd44   2.476       .  S
C42         C728   1.435       .  S
C42          O50   1.263       .  A
C43         C721   1.435       .  S
C43          O48   1.267       .  A
C43          O46   1.263       .  A
Cd44         O51   2.448       .  S
Cd44         O50   2.446       .  S
Cd44         O49   2.446       .  S
Cd44         O45   2.475       .  S
Cd44         O48   2.476       .  S
Cd44         O46   2.448       .  S
C47         C717   1.436       .  S
C47          O51   1.263       .  A
C52          C53   1.409       .  A
C52          C57   1.409       .  A
C52         C704   1.450       .  S
C53          C54   1.409       .  A
C53         C725   1.449       .  S
C54          C55   1.409       .  A
C54         C705   1.450       .  S
C55          C56   1.409       .  A
C55         C709   1.450       .  S
C56          C57   1.409       .  A
C56         C697   1.450       .  S
C57         C713   1.450       .  S
O58          C61   1.267       .  A
O58         Cd63   2.475   1_556  S
C59         C693   1.435       .  S
C59          O68   1.263       .  A
C59          O64   1.267       .  A
O60          C66   1.267       .  A
O60         Cd63   2.476       .  S
C61         C692   1.435       .  S
C61          O69   1.263       .  A
C62         C788   1.435       .  S
C62          O67   1.267       .  A
C62          O65   1.263       .  A
Cd63         O70   2.448       .  S
Cd63         O69   2.446   1_554  S
Cd63         O68   2.447       .  S
Cd63         O64   2.475       .  S
Cd63         O67   2.476   1_554  S
Cd63         O65   2.448   1_554  S
C66         C700   1.435       .  S
C66          O70   1.263       .  A
O71          C74   1.267       .  A
O71         Cd76   2.475       .  S
C72         C685   1.435       .  S
C72          O81   1.263       .  A
C72          O77   1.267       .  A
O73          C79   1.267       .  A
O73         Cd76   2.476       .  S
C74         C684   1.435       .  S
C74          O82   1.263       .  A
C75         C680   1.435       .  S
C75          O80   1.267       .  A
C75          O78   1.263       .  A
Cd76         O83   2.447       .  S
Cd76         O82   2.447       .  S
Cd76         O81   2.447       .  S
Cd76         O77   2.475       .  S
Cd76         O80   2.476       .  S
Cd76         O78   2.448       .  S
C79         C708   1.435       .  S
C79          O83   1.263       .  A
O84          C87   1.267       .  A
O84         Cd89   2.475   1_565  S
C85         C665   1.435       .  S
C85          O94   1.263       .  A
C85          O90   1.267       .  A
O86          C92   1.267       .  A
O86         Cd89   2.476   1_565  S
C87         C664   1.435       .  S
C87          O95   1.263       .  A
C88         C676   1.435       .  S
C88          O93   1.267       .  A
C88          O91   1.263       .  A
Cd89         O96   2.448   1_545  S
Cd89         O95   2.447   1_545  S
Cd89         O94   2.447       .  S
Cd89         O90   2.475       .  S
Cd89         O93   2.476       .  S
Cd89         O91   2.447       .  S
C92         C669   1.435       .  S
C92          O96   1.263       .  A
O97         C100   1.267       .  A
O97        Cd102   2.475   1_556  S
C98         C649   1.435       .  S
C98         O107   1.263       .  A
C98         O103   1.267       .  A
O99         C105   1.267       .  A
O99        Cd102   2.476   1_556  S
C100        C756   1.435       .  S
C100        O108   1.263       .  A
C101        C660   1.435       .  S
C101        O106   1.267       .  A
C101        O104   1.263       .  A
Cd102       O109   2.448   1_554  S
Cd102       O108   2.447   1_554  S
Cd102       O107   2.447       .  S
Cd102       O103   2.475       .  S
Cd102       O106   2.476       .  S
Cd102       O104   2.448       .  S
C105        C656   1.435       .  S
C105        O109   1.263       .  A
O110        C113   1.267       .  A
O110       Cd115   2.476       .  S
C111        C645   1.435       .  S
C111        O120   1.263       .  A
C111        O116   1.267       .  A
O112        C118   1.267       .  A
O112       Cd115   2.476       .  S
C113        C641   1.435       .  S
C113        O121   1.263       .  A
C114        C636   1.435       .  S
C114        O119   1.267       .  A
C114        O117   1.263       .  A
Cd115       O122   2.448       .  S
Cd115       O121   2.446       .  S
Cd115       O120   2.446       .  S
Cd115       O116   2.475       .  S
Cd115       O119   2.476       .  S
Cd115       O117   2.448       .  S
C118        C637   1.436       .  S
C118        O122   1.263       .  A
O123        C126   1.267       .  A
O123       Cd128   2.475       .  S
C124        C629   1.435       .  S
C124        O133   1.263       .  A
C124        O129   1.267       .  A
O125        C131   1.267       .  A
O125       Cd128   2.476       .  S
C126        C625   1.435       .  S
C126        O134   1.263       .  A
C127        C624   1.435       .  S
C127        O132   1.267       .  A
C127        O130   1.263       .  A
Cd128       O135   2.448       .  S
Cd128       O134   2.447       .  S
Cd128       O133   2.446       .  S
Cd128       O129   2.475       .  S
Cd128       O132   2.477       .  S
Cd128       O130   2.448       .  S
C131        C748   1.435       .  S
C131        O135   1.263       .  A
O136        C139   1.267       .  A
O136       Cd141   2.475       .  S
C137        C712   1.435       .  S
C137        O146   1.263       .  A
C137        O142   1.267       .  A
O138        C144   1.267       .  A
O138       Cd141   2.476       .  S
C139        C617   1.435       .  S
C139        O147   1.263       .  A
C140        C613   1.435       .  S
C140        O145   1.267       .  A
C140        O143   1.263       .  A
Cd141       O148   2.448       .  S
Cd141       O147   2.446       .  S
Cd141       O146   2.447       .  S
Cd141       O142   2.476       .  S
Cd141       O145   2.476       .  S
Cd141       O143   2.448       .  S
C144        C609   1.435       .  S
C144        O148   1.263       .  A
O149        C152   1.267       .  A
O149       Cd154   2.475       .  S
C150        C596   1.435       .  S
C150        O159   1.263       .  A
C150        O155   1.267       .  A
O151        C157   1.267       .  A
O151       Cd154   2.476       .  S
C152        C605   1.435       .  S
C152        O160   1.263       .  A
C153        C597   1.436       .  S
C153        O158   1.267       .  A
C153        O156   1.263       .  A
Cd154       O161   2.448       .  S
Cd154       O160   2.446       .  S
Cd154       O159   2.446       .  S
Cd154       O155   2.475       .  S
Cd154       O158   2.476       .  S
Cd154       O156   2.448       .  S
C157        C601   1.436       .  S
C157        O161   1.263       .  A
O162        C165   1.267       .  A
O162       Cd167   2.475       .  S
C163        C716   1.435       .  S
C163        O172   1.263       .  A
C163        O168   1.267       .  A
O164        C170   1.267       .  A
O164       Cd167   2.476       .  S
C165        C581   1.435       .  S
C165        O173   1.263       .  A
C166        C588   1.435       .  S
C166        O171   1.267       .  A
C166        O169   1.263       .  A
Cd167       O174   2.447       .  S
Cd167       O173   2.447       .  S
Cd167       O172   2.447   1_455  S
Cd167       O168   2.475   1_455  S
Cd167       O171   2.476   1_455  S
Cd167       O169   2.447   1_455  S
C170        C589   1.435       .  S
C170        O174   1.263       .  A
C175        C176   1.409       .  A
C175        C180   1.409       .  A
C175        C573   1.450       .  S
C176        C177   1.409       .  A
C176        C677   1.450       .  S
C177        C178   1.409       .  A
C177        C608   1.449       .  S
C178        C179   1.409       .  A
C178        C580   1.450       .  S
C179        C180   1.409       .  A
C179        C584   1.450       .  S
C180        C572   1.450       .  S
O181        C184   1.267       .  A
O181       Cd186   2.475   1_556  S
C182        C564   1.435       .  S
C182        O191   1.263       .  A
C182        O187   1.267       .  A
O183        C189   1.267       .  A
O183       Cd186   2.476       .  S
C184        C568   1.435       .  S
C184        O192   1.263       .  A
C185        C557   1.435       .  S
C185        O190   1.267       .  A
C185        O188   1.263       .  A
Cd186       O193   2.448       .  S
Cd186       O192   2.446   1_554  S
Cd186       O191   2.446       .  S
Cd186       O187   2.475       .  S
Cd186       O190   2.476   1_554  S
Cd186       O188   2.448   1_554  S
C189        C569   1.435       .  S
C189        O193   1.263       .  A
O194        C197   1.267       .  A
O194       Cd199   2.476       .  S
C195        C744   1.435       .  S
C195        O204   1.263       .  A
C195        O200   1.267       .  A
O196        C202   1.267       .  A
O196       Cd199   2.476       .  S
C197        C553   1.435       .  S
C197        O205   1.263       .  A
C198        C545   1.435       .  S
C198        O203   1.267       .  A
C198        O201   1.263       .  A
Cd199       O206   2.448       .  S
Cd199       O205   2.447       .  S
Cd199       O204   2.447       .  S
Cd199       O200   2.476       .  S
Cd199       O203   2.476       .  S
Cd199       O201   2.448       .  S
C202        C552   1.435       .  S
C202        O206   1.263       .  A
C207        C208   1.409       .  A
C207        C212   1.409       .  A
C207        C537   1.450       .  S
C208        C209   1.409       .  A
C208        C533   1.450       .  S
C209        C210   1.409       .  A
C209        C668   1.450       .  S
C210        C211   1.409       .  A
C210        C544   1.450       .  S
C211        C212   1.409       .  A
C211        C556   1.450       .  S
C212        C640   1.450       .  S
O213        C216   1.267       .  A
O213       Cd218   2.475   1_655  S
C214        C525   1.435       .  S
C214        O223   1.263       .  A
C214        O219   1.267       .  A
O215        C221   1.267       .  A
O215       Cd218   2.476       .  S
C216        C529   1.435       .  S
C216        O224   1.263       .  A
C217        C752   1.436       .  S
C217        O222   1.267       .  A
C217        O220   1.263       .  A
Cd218       O225   2.448       .  S
Cd218       O224   2.446   1_455  S
Cd218       O223   2.446       .  S
Cd218       O219   2.475       .  S
Cd218       O222   2.476   1_455  S
Cd218       O220   2.448   1_455  S
C221        C536   1.436       .  S
C221        O225   1.263       .  A
C226        C227   1.409       .  A
C226        C231   1.409       .  A
C226        C521   1.450       .  S
C227        C228   1.409       .  A
C227        C652   1.450       .  S
C228        C229   1.409       .  A
C228        C513   1.450       .  S
C229        C230   1.409       .  A
C229        C517   1.450       .  S
C230        C231   1.409       .  A
C230        C621   1.450       .  S
C231        C620   1.450       .  S
O232        C235   1.267       .  A
O232       Cd237   2.475       .  S
C233        C508   1.435       .  S
C233        O242   1.263       .  A
C233        O238   1.267       .  A
O234        C240   1.267       .  A
O234       Cd237   2.476   1_565  S
C235        C512   1.435       .  S
C235        O243   1.263       .  A
C236        C516   1.435       .  S
C236        O241   1.267       .  A
C236        O239   1.263       .  A
Cd237       O244   2.448   1_545  S
Cd237       O243   2.446       .  S
Cd237       O242   2.446   1_545  S
Cd237       O238   2.475   1_545  S
Cd237       O241   2.476       .  S
Cd237       O239   2.448       .  S
C240        C701   1.435       .  S
C240        O244   1.263       .  A
O245        C248   1.267       .  A
O245       Cd250   2.475       .  S
C246        C520   1.435       .  S
C246        O255   1.263       .  A
C246        O251   1.267       .  A
O247        C253   1.267       .  A
O247       Cd250   2.476       .  S
C248        C501   1.435       .  S
C248        O256   1.263       .  A
C249        C493   1.435       .  S
C249        O254   1.267       .  A
C249        O252   1.263       .  A
Cd250       O257   2.448       .  S
Cd250       O256   2.447       .  S
Cd250       O255   2.447   1_455  S
Cd250       O251   2.475   1_455  S
Cd250       O254   2.476   1_455  S
Cd250       O252   2.448   1_455  S
C253        C497   1.435       .  S
C253        O257   1.263       .  A
C258        C259   1.409       .  A
C258        C263   1.409       .  A
C258        C504   1.450       .  S
C259        C260   1.409       .  A
C259        C476   1.450       .  S
C260        C261   1.409       .  A
C260        C492   1.450       .  S
C261        C262   1.409       .  A
C261        C481   1.450       .  S
C262        C263   1.409       .  A
C262        C485   1.450       .  S
C263        C477   1.450       .  S
O264        C267   1.267       .  A
O264       Cd269   2.475   1_556  S
C265        C489   1.435       .  S
C265        O274   1.263       .  A
C265        O270   1.267       .  A
O266        C272   1.267       .  A
O266       Cd269   2.476   1_556  S
C267        C540   1.435       .  S
C267        O275   1.263       .  A
C268        C468   1.436       .  S
C268        O273   1.267       .  A
C268        O271   1.263       .  A
Cd269       O276   2.448   1_554  S
Cd269       O275   2.447   1_554  S
Cd269       O274   2.447       .  S
Cd269       O270   2.476       .  S
Cd269       O273   2.476       .  S
Cd269       O271   2.448       .  S
C272        C469   1.435       .  S
C272        O276   1.263       .  A
O277        C280   1.267       .  A
O277       Cd282   2.476   1_565  S
C278        C488   1.435       .  S
C278        O287   1.263       .  A
C278        O283   1.267       .  A
O279        C285   1.267       .  A
O279       Cd282   2.476   1_565  S
C280        C576   1.435       .  S
C280        O288   1.263       .  A
C281        C457   1.435       .  S
C281        O286   1.267       .  A
C281        O284   1.263       .  A
Cd282       O289   2.448   1_545  S
Cd282       O288   2.447   1_545  S
Cd282       O287   2.446       .  S
Cd282       O283   2.475       .  S
Cd282       O286   2.476       .  S
Cd282       O284   2.448       .  S
C285        C461   1.435       .  S
C285        O289   1.263       .  A
C290        C291   1.409       .  A
C290        C295   1.409   1_655  A
C290        C452   1.449       .  S
C291        C292   1.409   1_565  A
C291        C720   1.450       .  S
C292        C293   1.409   1_655  A
C292        C509   1.449       .  S
C293        C294   1.409       .  A
C293        C500   1.450       .  S
C294        C295   1.409   1_545  A
C294        C456   1.450       .  S
C295        C672   1.450       .  S
C296        C297   1.409   1_554  A
C296        C301   1.409   1_455  A
C296        C592   1.450       .  S
C297        C298   1.409   1_565  A
C297        C565   1.450       .  S
C298        C299   1.409   1_455  A
C298        C673   1.450       .  S
C299        C300   1.409   1_556  A
C299        C532   1.449       .  S
C300        C301   1.409   1_545  A
C300        C657   1.450       .  S
C301        C505   1.449       .  S
C302        C303   1.409   1_565  A
C302        C307   1.409       .  A
C302        C724   1.450       .  S
C303        C304   1.409       .  A
C303        C761   1.450       .  S
C304        C305   1.409       .  A
C304        C549   1.450       .  S
C305        C306   1.409   1_545  A
C305        C445   1.450       .  S
C306        C307   1.409       .  A
C306        C464   1.450       .  S
C307        C688   1.450       .  S
O308        C311   1.267       .  A
O308       Cd313   2.475       .  S
C309        C448   1.435       .  S
C309        O318   1.263       .  A
C309        O314   1.267       .  A
O310        C316   1.267       .  A
O310       Cd313   2.476       .  S
C311        C453   1.435       .  S
C311        O319   1.263       .  A
C312        C541   1.435       .  S
C312        O317   1.267       .  A
C312        O315   1.263       .  A
Cd313       O320   2.448       .  S
Cd313       O319   2.446       .  S
Cd313       O318   2.447       .  S
Cd313       O314   2.475       .  S
Cd313       O317   2.476       .  S
Cd313       O315   2.448       .  S
C316        C480   1.435       .  S
C316        O320   1.263       .  A
C321        C322   1.409   1_545  A
C321        C326   1.409   1_556  A
C321        C653   1.450       .  S
C322        C323   1.409       .  A
C322        C760   1.450       .  S
C323        C324   1.409   1_556  A
C323        C440   1.450       .  S
C324        C325   1.409   1_565  A
C324        C561   1.450       .  S
C325        C326   1.409       .  A
C325        C460   1.450       .  S
C326        C444   1.449       .  S
O327        C330   1.267       .  A
O327       Cd332   2.475       .  S
C328        C436   1.435       .  S
C328        O337   1.263       .  A
C328        O333   1.267       .  A
O329        C335   1.267       .  A
O329       Cd332   2.476       .  S
C330        C441   1.435       .  S
C330        O338   1.263       .  A
C331        C524   1.436       .  S
C331        O336   1.267       .  A
C331        O334   1.263       .  A
Cd332       O339   2.448       .  S
Cd332       O338   2.446       .  S
Cd332       O337   2.446       .  S
Cd332       O333   2.475       .  S
Cd332       O336   2.476       .  S
Cd332       O334   2.448       .  S
C335        C484   1.436       .  S
C335        O339   1.263       .  A
C340        C341   1.409       .  A
C340        C345   1.409       .  A
C340        C644   1.450       .  S
C341        C342   1.409   1_556  A
C341        C429   1.450       .  S
C342        C343   1.409       .  A
C342        C696   1.450       .  S
C343        C344   1.409       .  A
C343        C612   1.450       .  S
C344        C345   1.409   1_554  A
C344        C433   1.449       .  S
C345        C472   1.450       .  S
C346        C347   1.409   1_455  A
C346        C351   1.409       .  A
C346        C424   1.449       .  S
C347        C348   1.409       .  A
C347        C729   1.450       .  S
C348        C349   1.409       .  A
C348        C632   1.450       .  S
C349        C350   1.409   1_655  A
C349        C496   1.450       .  S
C350        C351   1.409       .  A
C350        C428   1.449       .  S
C351        C604   1.450       .  S
C352        C353   1.409   1_455  A
C352        C357   1.409   1_556  A
C352        C528   1.449       .  S
C353        C354   1.409       .  A
C353        C733   1.450       .  S
C354        C355   1.409   1_556  A
C354        C689   1.450       .  S
C355        C356   1.409   1_655  A
C355        C585   1.450       .  S
C356        C357   1.409       .  A
C356        C420   1.450       .  S
C357        C465   1.450       .  S
O358        C361   1.267       .  A
O358       Cd363   2.475       .  S
C359        C425   1.435       .  S
C359        O368   1.263       .  A
C359        O364   1.267       .  A
O360        C366   1.267       .  A
O360       Cd363   2.476       .  S
C361        C417   1.435       .  S
C361        O369   1.263       .  A
C362        C577   1.435       .  S
C362        O367   1.267       .  A
C362        O365   1.263       .  A
Cd363       O370   2.448       .  S
Cd363       O369   2.446       .  S
Cd363       O368   2.446       .  S
Cd363       O364   2.475       .  S
Cd363       O367   2.476       .  S
Cd363       O365   2.448       .  S
C366        C473   1.435       .  S
C366        O370   1.263       .  A
C371        C372   1.409       .  A
C371        C376   1.409       .  A
C371        C600   1.450       .  S
C372        C373   1.409       .  A
C372        C681   1.450       .  S
C373        C374   1.409       .  A
C373        C616   1.450       .  S
C374        C375   1.409       .  A
C374        C628   1.450       .  S
C375        C376   1.409       .  A
C375        C548   1.450       .  S
C376        C648   1.450       .  S
O377        C380   1.267       .  A
O377       Cd382   2.475       .  S
C378        C449   1.435       .  S
C378        O387   1.263       .  A
C378        O383   1.267       .  A
O379        C385   1.267       .  A
O379       Cd382   2.476   1_655  S
C380        C421   1.435       .  S
C380        O388   1.263       .  A
C381        C413   1.436       .  S
C381        O386   1.267       .  A
C381        O384   1.263       .  A
Cd382       O389   2.448   1_455  S
Cd382       O388   2.446       .  S
Cd382       O387   2.447   1_455  S
Cd382       O383   2.475   1_455  S
Cd382       O386   2.476       .  S
Cd382       O384   2.449       .  S
C385        C792   1.436       .  S
C385        O389   1.263       .  A
C390        C391   1.409       .  A
C390        C395   1.409       .  A
C390        C661   1.450       .  S
C391        C392   1.409       .  A
C391        C560   1.450       .  S
C392        C393   1.409       .  A
C392        C409   1.450       .  S
C393        C394   1.409       .  A
C393        C633   1.450       .  S
C394        C395   1.409       .  A
C394        C593   1.449       .  S
C395        C416   1.450       .  S
O396        C399   1.267       .  A
O396       Cd401   2.475       .  S
C397        C412   1.435       .  S
C397        O406   1.263       .  A
C397        O402   1.267       .  A
O398        C404   1.267       .  A
O398       Cd401   2.476       .  S
C399        C780   1.435       .  S
C399        O407   1.263       .  A
C400        C437   1.435       .  S
C400        O405   1.267       .  A
C400        O403   1.263       .  A
Cd401       O408   2.448       .  S
Cd401       O407   2.446       .  S
Cd401       O406   2.446       .  S
Cd401       O402   2.475       .  S
Cd401       O405   2.476       .  S
Cd401       O403   2.448       .  S
C404        C432   1.435       .  S
C404        O408   1.263       .  A
C409        C410   1.205       .  T
C410        C411   1.412       .  S
C411        C412   1.205       .  T
C413        C414   1.206       .  T
C414        C415   1.412       .  S
C415        C416   1.206       .  T
C417        C418   1.206       .  T
C418        C419   1.411       .  S
C419        C420   1.205       .  T
C421        C422   1.206       .  T
C422        C423   1.411       .  S
C423        C424   1.206       .  T
C425        C426   1.205       .  T
C426        C427   1.411       .  S
C427        C428   1.205       .  T
C429        C430   1.206       .  T
C430        C431   1.412       .  S
C431        C432   1.206       .  T
C433        C434   1.206       .  T
C434        C435   1.411       .  S
C435        C436   1.206       .  T
C437        C438   1.206       .  T
C438        C439   1.412       .  S
C439        C440   1.206       .  T
C441        C442   1.206       .  T
C442        C443   1.411       .  S
C443        C444   1.206       .  T
C445        C446   1.205       .  T
C446        C447   1.412       .  S
C447        C448   1.205       .  T
C449        C450   1.206       .  T
C450        C451   1.411       .  S
C451        C452   1.206       .  T
C453        C454   1.205       .  T
C454        C455   1.412       .  S
C455        C456   1.205       .  T
C457        C458   1.206       .  T
C458        C459   1.412       .  S
C459        C460   1.206       .  T
C461        C462   1.206       .  T
C462        C463   1.412       .  S
C463        C464   1.206       .  T
C465        C466   1.205       .  T
C466        C467   1.412       .  S
C467        C468   1.206       .  T
C469        C470   1.206       .  T
C470        C471   1.412       .  S
C471        C472   1.205       .  T
C473        C474   1.206       .  T
C474        C475   1.412       .  S
C475        C476   1.206       .  T
C477        C478   1.206       .  T
C478        C479   1.412       .  S
C479        C480   1.206       .  T
C481        C482   1.206       .  T
C482        C483   1.412       .  S
C483        C484   1.206       .  T
C485        C486   1.205       .  T
C486        C487   1.412       .  S
C487        C488   1.206       .  T
C489        C490   1.206       .  T
C490        C491   1.411       .  S
C491        C492   1.206       .  T
C493        C494   1.206       .  T
C494        C495   1.412       .  S
C495        C496   1.206       .  T
C497        C498   1.206       .  T
C498        C499   1.412       .  S
C499        C500   1.206       .  T
C501        C502   1.205       .  T
C502        C503   1.412       .  S
C503        C504   1.205       .  T
C505        C506   1.205       .  T
C506        C507   1.411       .  S
C507        C508   1.205       .  T
C509        C510   1.205       .  T
C510        C511   1.411       .  S
C511        C512   1.205       .  T
C513        C514   1.206       .  T
C514        C515   1.412       .  S
C515        C516   1.206       .  T
C517        C518   1.205       .  T
C518        C519   1.412       .  S
C519        C520   1.205       .  T
C521        C522   1.206       .  T
C522        C523   1.412       .  S
C523        C524   1.206       .  T
C525        C526   1.206       .  T
C526        C527   1.411       .  S
C527        C528   1.206       .  T
C529        C530   1.206       .  T
C530        C531   1.411       .  S
C531        C532   1.206       .  T
C533        C534   1.206       .  T
C534        C535   1.412       .  S
C535        C536   1.206       .  T
C537        C538   1.206       .  T
C538        C539   1.411       .  S
C539        C540   1.206       .  T
C541        C542   1.206       .  T
C542        C543   1.412       .  S
C543        C544   1.206       .  T
C545        C546   1.206       .  T
C546        C547   1.412       .  S
C547        C548   1.206       .  T
C549        C550   1.206       .  T
C550        C551   1.412       .  S
C551        C552   1.206       .  T
C553        C554   1.205       .  T
C554        C555   1.412       .  S
C555        C556   1.205       .  T
C557        C558   1.206       .  T
C558        C559   1.412       .  S
C559        C560   1.206       .  T
C561        C562   1.205       .  T
C562        C563   1.412       .  S
C563        C564   1.205       .  T
C565        C566   1.205       .  T
C566        C567   1.412       .  S
C567        C568   1.205       .  T
C569        C570   1.206       .  T
C570        C571   1.412       .  S
C571        C572   1.206       .  T
C573        C574   1.205       .  T
C574        C575   1.411       .  S
C575        C576   1.206       .  T
C577        C578   1.206       .  T
C578        C579   1.412       .  S
C579        C580   1.206       .  T
C581        C582   1.205       .  T
C582        C583   1.412       .  S
C583        C584   1.205       .  T
C585        C586   1.206       .  T
C586        C587   1.412       .  S
C587        C588   1.206       .  T
C589        C590   1.206       .  T
C590        C591   1.412       .  S
C591        C592   1.206       .  T
C593        C594   1.206       .  T
C594        C595   1.411       .  S
C595        C596   1.206       .  T
C597        C598   1.206       .  T
C598        C599   1.412       .  S
C599        C600   1.206       .  T
C601        C602   1.206       .  T
C602        C603   1.412       .  S
C603        C604   1.206       .  T
C605        C606   1.206       .  T
C606        C607   1.411       .  S
C607        C608   1.206       .  T
C609        C610   1.206       .  T
C610        C611   1.412       .  S
C611        C612   1.206       .  T
C613        C614   1.206       .  T
C614        C615   1.412       .  S
C615        C616   1.206       .  T
C617        C618   1.206       .  T
C618        C619   1.411       .  S
C619        C620   1.205       .  T
C621        C622   1.206       .  T
C622        C623   1.412       .  S
C623        C624   1.206       .  T
C625        C626   1.205       .  T
C626        C627   1.412       .  S
C627        C628   1.205       .  T
C629        C630   1.205       .  T
C630        C631   1.412       .  S
C631        C632   1.205       .  T
C633        C634   1.206       .  T
C634        C635   1.412       .  S
C635        C636   1.206       .  T
C637        C638   1.206       .  T
C638        C639   1.412       .  S
C639        C640   1.206       .  T
C641        C642   1.206       .  T
C642        C643   1.411       .  S
C643        C644   1.206       .  T
C645        C646   1.206       .  T
C646        C647   1.411       .  S
C647        C648   1.206       .  T
C649        C650   1.206       .  T
C650        C651   1.411       .  S
C651        C652   1.206       .  T
C653        C654   1.205       .  T
C654        C655   1.412       .  S
C655        C656   1.206       .  T
C657        C658   1.205       .  T
C658        C659   1.412       .  S
C659        C660   1.206       .  T
C661        C662   1.205       .  T
C662        C663   1.411       .  S
C663        C664   1.206       .  T
C665        C666   1.206       .  T
C666        C667   1.412       .  S
C667        C668   1.206       .  T
C669        C670   1.206       .  T
C670        C671   1.412       .  S
C671        C672   1.206       .  T
C673        C674   1.206       .  T
C674        C675   1.412       .  S
C675        C676   1.206       .  T
C677        C678   1.206       .  T
C678        C679   1.412       .  S
C679        C680   1.206       .  T
C681        C682   1.206       .  T
C682        C683   1.411       .  S
C683        C684   1.206       .  T
C685        C686   1.206       .  T
C686        C687   1.411       .  S
C687        C688   1.206       .  T
C689        C690   1.205       .  T
C690        C691   1.412       .  S
C691        C692   1.205       .  T
C693        C694   1.205       .  T
C694        C695   1.412       .  S
C695        C696   1.205       .  T
C697        C698   1.206       .  T
C698        C699   1.412       .  S
C699        C700   1.206       .  T
C701        C702   1.206       .  T
C702        C703   1.412       .  S
C703        C704   1.206       .  T
C705        C706   1.205       .  T
C706        C707   1.412       .  S
C707        C708   1.206       .  T
C709        C710   1.205       .  T
C710        C711   1.412       .  S
C711        C712   1.206       .  T
C713        C714   1.205       .  T
C714        C715   1.412       .  S
C715        C716   1.205       .  T
C717        C718   1.206       .  T
C718        C719   1.412       .  S
C719        C720   1.206       .  T
C721        C722   1.206       .  T
C722        C723   1.412       .  S
C723        C724   1.205       .  T
C725        C726   1.206       .  T
C726        C727   1.411       .  S
C727        C728   1.206       .  T
C729        C730   1.206       .  T
C730        C731   1.412       .  S
C731        C732   1.206       .  T
C733        C734   1.206       .  T
C734        C735   1.412       .  S
C735        C736   1.206       .  T
C737        C738   1.205       .  T
C738        C739   1.411       .  S
C739        C740   1.206       .  T
C741        C742   1.205       .  T
C742        C743   1.412       .  S
C743        C744   1.205       .  T
C745        C746   1.206       .  T
C746        C747   1.412       .  S
C747        C748   1.206       .  T
C749        C750   1.206       .  T
C750        C751   1.412       .  S
C751        C752   1.206       .  T
C753        C754   1.206       .  T
C754        C755   1.411       .  S
C755        C756   1.206       .  T
C757        C758   1.206       .  T
C758        C759   1.411       .  S
C759        C760   1.205       .  T
C761        C762   1.206       .  T
C762        C763   1.411       .  S
C763        C764   1.206       .  T
C765        C766   1.206       .  T
C766        C767   1.412       .  S
C767        C768   1.206       .  T
C769        C770   1.205       .  T
C770        C771   1.411       .  S
C771        C772   1.206       .  T
C773        C774   1.206       .  T
C774        C775   1.411       .  S
C775        C776   1.206       .  T
C777        C778   1.205       .  T
C778        C779   1.412       .  S
C779        C780   1.205       .  T
C781        C782   1.206       .  T
C782        C783   1.412       .  S
C783        C784   1.206       .  T
C785        C786   1.206       .  T
C786        C787   1.412       .  S
C787        C788   1.206       .  T
C789        C790   1.206       .  T
C790        C791   1.412       .  S
C791        C792   1.206       .  T
