geometry optimzed in LAMMPS
_audit_creation_date              2020-11-30 
_audit_creation_method            'lammps2cif' 
_symmetry_space_group_name_H-M    'P1' 
_symmetry_Int_Tables_number       1 
_symmetry_cell_setting            triclinic 
loop_ 
_symmetry_equiv_pos_as_xyz 
  x,y,z 
_cell_length_a                    38.12600671 
_cell_length_b                    42.89952634716633 
_cell_length_c                    44.05615469611543 
_cell_angle_alpha                 89.41565471457508 
_cell_angle_beta                  80.97748481660226 
_cell_angle_gamma                 90.33614801146147 
loop_ 
_atom_site_label 
_atom_site_type_symbol 
_atom_site_fract_x 
_atom_site_fract_y 
_atom_site_fract_z 
_atom_site_charge 
O1          O  0.08314563  0.44909713  0.01397452    -0.72300
O2          O  0.06348959  0.03476899  0.50326469    -0.72500
O3          O  0.07642018  0.48628981  0.46536087    -0.72400
O4          O  0.07758707  0.99983416  0.05137713    -0.72400
O5          O  0.00912614  0.00371627  0.04086293    -0.72300
O6          O  0.00652579  0.50215853  0.45637625    -0.72400
O7          O  0.99425029  0.04616402  0.49765098    -0.72300
O8          O  0.01410658  0.45882615  0.00017088    -0.72500
V9          V  0.07476486  0.49193123  0.00731390     1.35200
V10         V  0.00365443  0.00249371  0.49825019     1.35200
C11         C  0.98938342  0.43955856  0.00924655     0.76900
C12         C  0.08779518  0.05509401  0.50008417     0.77000
C13         C  0.10311292  0.49232847  0.44526204     0.76900
C14         C  0.98081140  0.00267954  0.05995844     0.76800
C15         C  0.05535396  0.18344871  0.47707927     0.79700
N16         N  0.05229339  0.20601319  0.49874414    -0.78600
C17         C  0.04666887  0.23614260  0.49081970     0.82200
N18         N  0.04440694  0.24364204  0.46107265    -0.77500
C19         C  0.04796106  0.22122017  0.43926654     0.82200
N20         N  0.05354705  0.19142981  0.44758767    -0.80300
C21         C  0.02601344  0.31145421  0.02953930     0.79700
N22         N  0.03144938  0.28932470  0.00748229    -0.78600
C23         C  0.03988350  0.25969889  0.01489066     0.82200
N24         N  0.04304959  0.25237784  0.04449497    -0.78500
C25         C  0.03788353  0.27455974  0.06652733     0.82200
N26         N  0.02936834  0.30390073  0.05885890    -0.80300
O27         O  0.14491633  0.25367785  0.29984668    -0.72300
O28         O  0.14438292  0.26002614  0.21379652    -0.72500
O29         O  0.13403316  0.21341119  0.25530622    -0.72400
O30         O  0.15543969  0.30011193  0.25788906    -0.72400
O31         O  0.08655047  0.28876009  0.25336350    -0.72300
O32         O  0.06429486  0.20376918  0.24180768    -0.72400
O33         O  0.07609223  0.25387901  0.20504488    -0.72300
O34         O  0.07479871  0.23832992  0.29008005    -0.72500
V35         V  0.14562837  0.25661004  0.25658509     1.35200
V36         V  0.07449863  0.24643663  0.24779034     1.35200
C37         C  0.04785124  0.24444632  0.30953589     0.76900
C38         C  0.04738442  0.25817685  0.19484450     0.77000
C39         C  0.03253832  0.19424499  0.24767325     0.76900
C40         C  0.06255081  0.30911861  0.25604896     0.76800
C41         C  0.12513475  0.06561430  0.22431199     0.79700
N42         N  0.12065643  0.04323247  0.24666642    -0.78600
C43         C  0.11480746  0.01305364  0.23943230     0.82200
N44         N  0.11315627  0.00544499  0.20974603    -0.78500
C45         C  0.11711055  0.02784944  0.18741818     0.82200
N46         N  0.12337060  0.05772780  0.19487882    -0.80300
C47         C  0.09149778  0.43826046  0.27835775     0.79700
N48         N  0.09498168  0.46082961  0.25618046    -0.78600
C49         C  0.09976256  0.49114632  0.26357222     0.82200
N50         N  0.10085960  0.49881720  0.29339804    -0.78500
C51         C  0.09684857  0.47635251  0.31572067     0.82200
N52         N  0.09205584  0.44638051  0.30786744    -0.80300
C53         C  0.09099193  0.34978486  0.28300889    -0.26800
C54         C  0.07123250  0.34214159  0.25990460    -0.14900
C55         C  0.05993481  0.36592145  0.24140474     0.35700
C56         C  0.06808961  0.39718877  0.24696904    -0.26300
C57         C  0.08669747  0.40501946  0.27097766    -0.15500
C58         C  0.09882874  0.38090137  0.28886289     0.36800
N59         N  0.99451620  0.38510815  0.31673365    -0.89800
H60         H  0.97262652  0.32948057  0.30042168     0.17900
H61         H  0.05884587  0.41554770  0.23318427     0.17900
N62         N  0.16792677  0.35890561  0.21797044    -0.88800
H63         H  0.99915381  0.36445033  0.32821890     0.35300
H64         H  0.01940134  0.39412432  0.30734141     0.40400
H65         H  0.14276421  0.35029625  0.22706281     0.40000
H66         H  0.16382932  0.37922445  0.20573626     0.34900
C67         C  0.02530860  0.11617581  0.21019116    -0.26800
C68         C  0.13322475  0.09825876  0.23117912    -0.14900
C69         C  0.11328912  0.11471836  0.25544398     0.35700
C70         C  0.12192623  0.14612135  0.26006398    -0.26300
C71         C  0.02316384  0.16145264  0.24285295    -0.15500
C72         C  0.03778448  0.14601486  0.21577674     0.36800
N73         N  0.06398429  0.16120132  0.19332168    -0.89800
H74         H  0.03576767  0.10499070  0.18893834     0.17900
H75         H  0.10655178  0.15890360  0.27854248     0.17900
N76         N  0.08406586  0.09974544  0.27483597    -0.88800
H77         H  0.07006818  0.14744831  0.17376767     0.35300
H78         H  0.08740912  0.16289037  0.20276163     0.40400
H79         H  0.06507208  0.09392495  0.26108684     0.40000
H80         H  0.07185617  0.11525317  0.29130827     0.34900
C81         C  0.15176895  0.24279451  0.14785091    -0.26800
C82         C  0.04694988  0.26178064  0.16169137    -0.14900
C83         C  0.06539117  0.28631141  0.14413842     0.35700
C84         C  0.06273330  0.28904637  0.11291470    -0.26300
C85         C  0.04255165  0.26791376  0.09858217    -0.15500
C86         C  0.15038467  0.24508399  0.11637523     0.36800
N87         N  0.12828946  0.22358723  0.10320493    -0.89800
H88         H  0.13626590  0.22479438  0.16138899     0.17900
H89         H  0.07630257  0.30821680  0.09975043     0.17900
N90         N  0.08616573  0.30934150  0.15709636    -0.88800
H91         H  0.11002398  0.23621124  0.09273159     0.35300
H92         H  0.14429488  0.21086337  0.08634879     0.40400
H93         H  0.07452117  0.33104122  0.15463365     0.40000
H94         H  0.96540538  0.30466997  0.18101305     0.34900
C95         C  0.02917149  0.25876793  0.36444713    -0.26800
C96         C  0.04808505  0.23885944  0.34269258    -0.14900
C97         C  0.06635947  0.21323811  0.35288876     0.35700
C98         C  0.06583960  0.20844605  0.38441118    -0.26300
C99         C  0.04747104  0.22849372  0.40631235    -0.15500
C100        C  0.02870288  0.25391958  0.39621566     0.36800
N101        N  0.13081043  0.27429716  0.41780548    -0.89800
H102        H  0.13733952  0.27713352  0.35627960     0.17900
H103        H  0.08029964  0.18886237  0.39185963     0.17900
N104        N  0.08414069  0.19129254  0.33137304    -0.88800
H105        H  0.11844699  0.29137053  0.40617538     0.35300
H106        H  0.11050489  0.26106814  0.43058616     0.40400
H107        H  0.10732951  0.20201530  0.32019881     0.40000
H108        H  0.97195714  0.17483853  0.34466886     0.34900
C109        C  0.99638315  0.99533854  0.14295406    -0.26800
C110        C  0.11340028  0.02033702  0.15534284    -0.14900
C111        C  0.09442963  0.04028009  0.13816023     0.35700
C112        C  0.09220956  0.03336541  0.10752756    -0.26300
C113        C  0.10874496  0.00707120  0.09351850    -0.15500
C114        C  0.99976692  0.48544712  0.11216796     0.36800
N115        N  0.01556319  0.45712764  0.09945231    -0.89800
H116        H  0.01838386  0.47744704  0.15526038     0.17900
H117        H  0.07786463  0.04885415  0.09430304     0.17900
N118        N  0.07671331  0.06712391  0.15217566    -0.88800
H119        H  0.04310698  0.45946636  0.09774780     0.35300
H120        H  0.01000661  0.45316957  0.07735968     0.40400
H121        H  0.05691532  0.05872767  0.16945715     0.40000
H122        H  0.06384376  0.07933766  0.13650699     0.34900
C123        C  0.99925858  0.50853286  0.39221582    -0.26800
C124        C  0.10112022  0.48895043  0.41207764    -0.14900
C125        C  0.07837219  0.46657195  0.40203229     0.35700
C126        C  0.07642968  0.46427927  0.37065214    -0.26300
C127        C  0.09722014  0.48334518  0.34863830    -0.15500
C128        C  0.99917901  0.50543354  0.36040355     0.36800
N129        N  0.02234143  0.52452573  0.33883111    -0.89800
H130        H  0.01644367  0.52577174  0.40026222     0.17900
H131        H  0.05895398  0.44687685  0.36324891     0.17900
N132        N  0.05837241  0.44530511  0.42360054    -0.88800
H133        H  0.03858414  0.53846294  0.35024832     0.35300
H134        H  0.00641705  0.53983662  0.32849803     0.40400
H135        H  0.07673002  0.43105987  0.43227085     0.40000
H136        H  0.04247235  0.43060429  0.41260976     0.34900
C137        C  0.11610467  0.35820736  0.04317980    -0.26800
C138        C  0.01572071  0.34351266  0.02245636    -0.14900
C139        C  0.03371801  0.36072603  0.99726940     0.35700
C140        C  0.02433151  0.39199265  0.99316440    -0.26300
C141        C  0.99698935  0.40613542  0.01335761    -0.15500
C142        C  0.10539410  0.38881657  0.03822314     0.36800
N143        N  0.07910382  0.40338716  0.06049080    -0.89800
H144        H  0.10399015  0.34566202  0.06361635     0.17900
H145        H  0.03857625  0.40547613  0.97428113     0.17900
N146        N  0.06191168  0.34671879  0.97645832    -0.88800
H147        H  0.07153424  0.38857934  0.07941224     0.35300
H148        H  0.05635694  0.40649988  0.05035519     0.40400
H149        H  0.08219265  0.34104273  0.98891328     0.40000
H150        H  0.94455220  0.36024818  0.95483944     0.34900
C151        C  0.05827292  0.09520915  0.47329843    -0.26800
C152        C  0.07905345  0.08801961  0.49586327    -0.14900
C153        C  0.96230074  0.11152306  0.51404753     0.35700
C154        C  0.95183002  0.14238734  0.50912193    -0.26300
C155        C  0.06125427  0.15039423  0.48484027    -0.15500
C156        C  0.04915642  0.12602082  0.46755500     0.36800
N157        N  0.02785963  0.13255331  0.44404844    -0.89800
H158        H  0.04952093  0.07660639  0.45971593     0.17900
H159        H  0.95930403  0.16078522  0.52356752     0.17900
N160        N  0.98611711  0.10383388  0.03903505    -0.88800
H161        H  0.02097573  0.11199256  0.43379658     0.35300
H162        H  0.00413141  0.14238849  0.45461747     0.40400
H163        H  0.01112907  0.09553494  0.02965281     0.40000
H164        H  0.99055225  0.12383980  0.05129447     0.34900
O165        O  0.08614391  0.45070340  0.51399237    -0.72300
O166        O  0.06678937  0.03552328  0.00325342    -0.72500
O167        O  0.07348746  0.48438200  0.96508753    -0.72400
O168        O  0.07451511  0.99909266  0.55148877    -0.72400
O169        O  0.00652896  0.00454521  0.54081858    -0.72300
O170        O  0.00341742  0.50210841  0.95759364    -0.72400
O171        O  0.99771517  0.04570755  0.99774568    -0.72300
O172        O  0.01713530  0.45919386  0.49908958    -0.72500
V173        V  0.07844950  0.49366426  0.50747813     1.35200
V174        V  0.00650439  0.00197659  0.99819757     1.35200
C175        C  0.99223270  0.44013852  0.50834448     0.76900
C176        C  0.09146839  0.05551519  0.99980697     0.77000
C177        C  0.10021178  0.49104195  0.94523452     0.76900
C178        C  0.97833656  0.00364896  0.56002813     0.76800
C179        C  0.05746767  0.18361237  0.97644781     0.79700
N180        N  0.05245324  0.20575059  0.99853470    -0.78600
C181        C  0.04559934  0.23574429  0.99095758     0.82200
N182        N  0.04410939  0.24353346  0.96111330    -0.77500
C183        C  0.04949028  0.22154612  0.93889014     0.82200
N184        N  0.05623382  0.19188859  0.94692487    -0.80300
C185        C  0.02949377  0.31240153  0.52867871     0.79700
N186        N  0.03424771  0.29005912  0.50682351    -0.78600
C187        C  0.04254711  0.26045728  0.51434829     0.82200
N188        N  0.04618419  0.25332629  0.54386272    -0.78500
C189        C  0.04170169  0.27569894  0.56570081     0.82200
N190        N  0.03332314  0.30505316  0.55795598    -0.80300
O191        O  0.14905237  0.25285897  0.80007815    -0.72300
O192        O  0.14632612  0.25860789  0.71424948    -0.72500
O193        O  0.13672898  0.21238587  0.75623674    -0.72400
O194        O  0.15871588  0.29903660  0.75772631    -0.72400
O195        O  0.08920137  0.28914776  0.75242002    -0.72300
O196        O  0.06766482  0.20404342  0.74115324    -0.72400
O197        O  0.07898439  0.25410956  0.70427433    -0.72300
O198        O  0.07778011  0.23889711  0.78939166    -0.72500
V199        V  0.14864768  0.25553255  0.75692230     1.35200
V200        V  0.07746922  0.24677774  0.74702205     1.35200
C201        C  0.05078379  0.24505388  0.80880060     0.76900
C202        C  0.05028898  0.25831354  0.69402752     0.77000
C203        C  0.03600286  0.19433206  0.74710955     0.76900
C204        C  0.06506871  0.30936331  0.75482316     0.76800
C205        C  0.12451597  0.06529825  0.72435590     0.79700
N206        N  0.11969390  0.04299005  0.74672261    -0.78600
C207        C  0.11334058  0.01291579  0.73962377     0.82200
N208        N  0.11154705  0.00525503  0.70995691    -0.78500
C209        C  0.11591799  0.02757990  0.68751346     0.82200
N210        N  0.12268056  0.05741448  0.69489164    -0.80300
C211        C  0.09295858  0.43840652  0.77726339     0.79700
N212        N  0.09691485  0.46115238  0.75526869    -0.78600
C213        C  0.10137316  0.49138986  0.76307573     0.82200
N214        N  0.10168764  0.49878400  0.79306476    -0.78500
C215        C  0.09720463  0.47612205  0.81515305     0.82200
N216        N  0.09270311  0.44623619  0.80695873    -0.80300
C217        C  0.09364984  0.35011036  0.78132187    -0.26800
C218        C  0.07357485  0.34239943  0.75847758    -0.14900
C219        C  0.06184230  0.36609711  0.74012778     0.35700
C220        C  0.06983950  0.39740033  0.74567103    -0.26300
C221        C  0.08865240  0.40526057  0.76953307    -0.15500
C222        C  0.10126590  0.38122762  0.78718583     0.36800
N223        N  0.99750113  0.38513936  0.81615560    -0.89800
H224        H  0.97644271  0.32914885  0.79971481     0.17900
H225        H  0.06024365  0.41574463  0.73208138     0.17900
N226        N  0.17150788  0.35736591  0.71653561    -0.88800
H227        H  0.00292399  0.36449811  0.82730839     0.35300
H228        H  0.02202147  0.39474338  0.80656895     0.40400
H229        H  0.14642353  0.34853639  0.72558000     0.40000
H230        H  0.16722283  0.37756813  0.70419860     0.34900
C231        C  0.02800285  0.11669844  0.70927967    -0.26800
C232        C  0.13327798  0.09776663  0.73135450    -0.14900
C233        C  0.11520199  0.11377862  0.75687353     0.35700
C234        C  0.12461744  0.14495268  0.76167326    -0.26300
C235        C  0.02694026  0.16150034  0.74239098    -0.15500
C236        C  0.04071571  0.14643981  0.71488440     0.36800
N237        N  0.06611864  0.16198805  0.69201593    -0.89800
H238        H  0.03743982  0.10600482  0.68758499     0.17900
H239        H  0.11053467  0.15746374  0.78097379     0.17900
N240        N  0.08708151  0.09860764  0.77739894    -0.88800
H241        H  0.07166435  0.14845916  0.67225672     0.35300
H242        H  0.08995352  0.16373495  0.70082906     0.40400
H243        H  0.06668589  0.09353346  0.76485689     0.40000
H244        H  0.07640594  0.11371951  0.79487074     0.34900
C245        C  0.15247093  0.24053532  0.64810562    -0.26800
C246        C  0.04997577  0.26227815  0.66089473    -0.14900
C247        C  0.06957705  0.28623610  0.64332651     0.35700
C248        C  0.06710832  0.28921492  0.61208498    -0.26300
C249        C  0.04598253  0.26892127  0.59778250    -0.15500
C250        C  0.14985761  0.24309221  0.61682135     0.36800
N251        N  0.12825398  0.22092458  0.60396437    -0.89800
H252        H  0.13802701  0.22201609  0.66172714     0.17900
H253        H  0.08162910  0.30787169  0.59889268     0.17900
N254        N  0.09138962  0.30845204  0.65624967    -0.88800
H255        H  0.10902092  0.23292798  0.59412202     0.35300
H256        H  0.14436718  0.20884223  0.58666668     0.40400
H257        H  0.08094333  0.33060106  0.65350136     0.40000
H258        H  0.96393334  0.30516970  0.68071639     0.34900
C259        C  0.03237067  0.25983897  0.86368701    -0.26800
C260        C  0.05092550  0.23962761  0.84202857    -0.14900
C261        C  0.06864738  0.21377146  0.85238536     0.35700
C262        C  0.06774237  0.20888889  0.88395016    -0.26300
C263        C  0.04956567  0.22911293  0.90582065    -0.15500
C264        C  0.03159967  0.25497700  0.89551777     0.36800
N265        N  0.13396663  0.27163660  0.91785748    -0.89800
H266        H  0.13976419  0.27448371  0.85640595     0.17900
H267        H  0.08172974  0.18903130  0.89143233     0.17900
N268        N  0.08626286  0.19167867  0.83095911    -0.88800
H269        H  0.11979800  0.28754673  0.90643803     0.35300
H270        H  0.11514415  0.25696463  0.93069653     0.40400
H271        H  0.10967584  0.20218223  0.81996086     0.40000
H272        H  0.97768016  0.17501806  0.84403569     0.34900
C273        C  0.99256270  0.99481493  0.64317952    -0.26800
C274        C  0.11175474  0.02007934  0.65546647    -0.14900
C275        C  0.09230535  0.03991209  0.63858572     0.35700
C276        C  0.08911783  0.03281820  0.60816364    -0.26300
C277        C  0.10546525  0.00657371  0.59392552    -0.15500
C278        C  0.00415318  0.48720868  0.61101104     0.36800
N279        N  0.02182417  0.45977172  0.59803129    -0.89800
H280        H  0.02185365  0.47923897  0.65451720     0.17900
H281        H  0.07441290  0.04826670  0.59520705     0.17900
N282        N  0.07515337  0.06690133  0.65270622    -0.88800
H283        H  0.04911888  0.46304940  0.59733812     0.35300
H284        H  0.01747743  0.45605425  0.57555385     0.40400
H285        H  0.05615219  0.05864059  0.67066860     0.40000
H286        H  0.06141585  0.07880624  0.63744445     0.34900
C287        C  0.99729128  0.50885220  0.89315689    -0.26800
C288        C  0.09880635  0.48793650  0.91190019    -0.14900
C289        C  0.07510820  0.46674957  0.90127260     0.35700
C290        C  0.07417741  0.46468344  0.86969812    -0.26300
C291        C  0.09672273  0.48287536  0.84814914    -0.15500
C292        C  0.99791623  0.50580547  0.86119942     0.36800
N293        N  0.02171425  0.52470414  0.83995713    -0.89800
H294        H  0.01459577  0.52578279  0.90151261     0.17900
H295        H  0.05608684  0.44815783  0.86176644     0.17900
N296        N  0.05301729  0.44645892  0.92242882    -0.88800
H297        H  0.03760797  0.53864824  0.85170745     0.35300
H298        H  0.00624295  0.54000541  0.82913338     0.40400
H299        H  0.06994118  0.43104879  0.93147283     0.40000
H300        H  0.03646459  0.43285220  0.91100627     0.34900
C301        C  0.11533425  0.35902622  0.54328846    -0.26800
C302        C  0.01870360  0.34427411  0.52151822    -0.14900
C303        C  0.03501288  0.36089525  0.49524830     0.35700
C304        C  0.02540857  0.39207397  0.49109316    -0.26300
C305        C  0.99943575  0.40665562  0.51225719    -0.15500
C306        C  0.10599087  0.38998835  0.53820358     0.36800
N307        N  0.07949666  0.40501148  0.55993249    -0.89800
H308        H  0.10187397  0.34654483  0.56324167     0.17900
H309        H  0.03845233  0.40516505  0.47143146     0.17900
N310        N  0.06182093  0.34642971  0.47340184    -0.88800
H311        H  0.07096049  0.39029506  0.57873946     0.35300
H312        H  0.05728061  0.40859935  0.54919864     0.40400
H313        H  0.08342158  0.34149007  0.48456854     0.40000
H314        H  0.94506272  0.35938956  0.45601593     0.34900
C315        C  0.06268343  0.09542327  0.97221718    -0.26800
C316        C  0.08322298  0.08848654  0.99502609    -0.14900
C317        C  0.96745541  0.11153622  0.01406704     0.35700
C318        C  0.95778793  0.14259990  0.00894027    -0.26300
C319        C  0.06459241  0.15066543  0.98382860    -0.15500
C320        C  0.05327407  0.12612043  0.96631227     0.36800
N321        N  0.03230244  0.13234390  0.94250456    -0.89800
H322        H  0.05417171  0.07666823  0.95867898     0.17900
H323        H  0.96584266  0.16093789  0.02317022     0.17900
N324        N  0.98085053  0.10406939  0.53914834    -0.88800
H325        H  0.02601426  0.11169214  0.93208346     0.35300
H326        H  0.00826071  0.14181441  0.95281595     0.40400
H327        H  0.00618054  0.09638676  0.52989900     0.40000
H328        H  0.98451309  0.12406765  0.55168908     0.34900
O329        O  0.08565471  0.95010191  0.01496354    -0.72300
O330        O  0.06852151  0.53620353  0.50160005    -0.72500
O331        O  0.07355844  0.98541480  0.46630201    -0.72400
O332        O  0.07436291  0.49930246  0.04981788    -0.72400
O333        O  0.00669621  0.50284018  0.04329897    -0.72300
O334        O  0.00297109  0.00100643  0.45513306    -0.72400
O335        O  0.99918818  0.54658961  0.49940809    -0.72300
O336        O  0.01692872  0.95858664  0.99866008    -0.72500
V337        V  0.07731796  0.99304211  0.00883180     1.35200
V338        V  0.00740795  0.50272795  0.49940422     1.35200
C339        C  0.99222379  0.93930814  0.00772842     0.76900
C340        C  0.09346695  0.55592598  0.49820912     0.77000
C341        C  0.10040885  0.99209500  0.44655870     0.76900
C342        C  0.97859453  0.50176196  0.06261367     0.76800
C343        C  0.06000419  0.68462923  0.47729182     0.79700
N344        N  0.05463401  0.70660702  0.49954998    -0.78600
C345        C  0.04839677  0.73677993  0.49198159     0.82200
N346        N  0.04784670  0.74487644  0.46206344    -0.77500
C347        C  0.05370308  0.72304067  0.43976642     0.82200
N348        N  0.05985178  0.69328632  0.44773976    -0.80300
C349        C  0.02791046  0.81152831  0.03067778     0.79700
N350        N  0.03217508  0.78921521  0.00878028    -0.78600
C351        C  0.03968701  0.75938512  0.01624004     0.82200
N352        N  0.04318002  0.75203041  0.04573749    -0.78500
C353        C  0.03918148  0.77437066  0.06764029     0.82200
N354        N  0.03150378  0.80394042  0.05993943    -0.80300
O355        O  0.15149805  0.75392467  0.29974663    -0.72300
O356        O  0.14859074  0.75710675  0.21388222    -0.72500
O357        O  0.13925241  0.71204818  0.25713849    -0.72400
O358        O  0.16072859  0.79870178  0.25613427    -0.72400
O359        O  0.09154655  0.78754029  0.25281263    -0.72300
O360        O  0.06969505  0.70252409  0.24218810    -0.72400
O361        O  0.08050735  0.75231908  0.20500200    -0.72300
O362        O  0.08065146  0.73763161  0.29002832    -0.72500
V363        V  0.15095805  0.75520671  0.25658228     1.35200
V364        V  0.07962800  0.74521715  0.24772880     1.35200
C365        C  0.05391149  0.74382064  0.30968281     0.76900
C366        C  0.05158893  0.75666047  0.19516080     0.77000
C367        C  0.03804328  0.69275760  0.24789096     0.76900
C368        C  0.06744936  0.80776765  0.25592521     0.76800
C369        C  0.11730064  0.56771796  0.22414892     0.79700
N370        N  0.11218445  0.54521660  0.24635946    -0.78600
C371        C  0.10441885  0.51544129  0.23932521     0.82200
N372        N  0.10203675  0.50811664  0.20969040    -0.78500
C373        C  0.10668940  0.53054125  0.18729983     0.82200
N374        N  0.11443299  0.56016804  0.19476201    -0.80300
C375        C  0.09935457  0.93613384  0.27847389     0.79700
N376        N  0.10465037  0.95854501  0.25617206    -0.78600
C377        C  0.10954891  0.98881727  0.26365061     0.82200
N378        N  0.10880289  0.99662342  0.29365000    -0.78500
C379        C  0.10302516  0.97434083  0.31607734     0.82200
N380        N  0.09822102  0.94437332  0.30817941    -0.80300
C381        C  0.09562333  0.84779854  0.28358262    -0.26800
C382        C  0.07629038  0.84064582  0.26006594    -0.14900
C383        C  0.06622937  0.86464141  0.24118407     0.35700
C384        C  0.07545137  0.89569033  0.24664668    -0.26300
C385        C  0.09365763  0.90305390  0.27107040    -0.15500
C386        C  0.10423447  0.87868673  0.28950354     0.36800
N387        N  0.99862228  0.88820023  0.31139361    -0.89800
H388        H  0.98075145  0.83120461  0.29528594     0.17900
H389        H  0.06729746  0.91426946  0.23250198     0.17900
N390        N  0.17008556  0.85669351  0.21577279    -0.88800
H391        H  0.00639443  0.86793320  0.32184572     0.35300
H392        H  0.02192159  0.89947383  0.30118922     0.40400
H393        H  0.14572654  0.84675903  0.22526326     0.40000
H394        H  0.16418673  0.87680331  0.20400694     0.34900
C395        C  0.03712284  0.61296993  0.21223385    -0.26800
C396        C  0.12873051  0.59963849  0.23120384    -0.14900
C397        C  0.11712047  0.61386805  0.25976639     0.35700
C398        C  0.12940676  0.64403188  0.26512533    -0.26300
C399        C  0.02928719  0.65982463  0.24279558    -0.15500
C400        C  0.04695560  0.64375735  0.21711621     0.36800
N401        N  0.07350763  0.65915786  0.19513625    -0.89800
H402        H  0.05091049  0.60068171  0.19284280     0.17900
H403        H  0.11983200  0.65534416  0.28661502     0.17900
N404        N  0.09221061  0.59812465  0.28283637    -0.88800
H405        H  0.08175267  0.64473842  0.17640792     0.35300
H406        H  0.09586330  0.66273245  0.20564955     0.40400
H407        H  0.06842657  0.59551812  0.27407849     0.40000
H408        H  0.08648383  0.61180143  0.30247794     0.34900
C409        C  0.15469261  0.74075303  0.14757111    -0.26800
C410        C  0.05059527  0.76052782  0.16215435    -0.14900
C411        C  0.06844757  0.78538151  0.14467278     0.35700
C412        C  0.06485721  0.78858484  0.11368856    -0.26300
C413        C  0.04435871  0.76756735  0.09952762    -0.15500
C414        C  0.15246424  0.74393602  0.11629028     0.36800
N415        N  0.13017650  0.72271885  0.10298880    -0.89800
H416        H  0.13959230  0.72237840  0.16088204     0.17900
H417        H  0.07804628  0.80796258  0.10056513     0.17900
N418        N  0.08957662  0.80824322  0.15747380    -0.88800
H419        H  0.11153705  0.73554592  0.09316876     0.35300
H420        H  0.14594135  0.71045576  0.08561140     0.40400
H421        H  0.07769505  0.82994586  0.15565695     0.40000
H422        H  0.96785667  0.80360189  0.18098565     0.34900
C423        C  0.03512952  0.75920683  0.36428854    -0.26800
C424        C  0.05489200  0.73941059  0.34290554    -0.14900
C425        C  0.07467318  0.71506398  0.35359277     0.35700
C426        C  0.07439010  0.71118208  0.38517478    -0.26300
C427        C  0.05447351  0.73064662  0.40672301    -0.15500
C428        C  0.03468878  0.75511858  0.39615330     0.36800
N429        N  0.13880778  0.77599058  0.41724420    -0.89800
H430        H  0.14501964  0.77832778  0.35570674     0.17900
H431        H  0.08984210  0.69246023  0.39299110     0.17900
N432        N  0.09342760  0.69317772  0.33259447    -0.88800
H433        H  0.12643905  0.79299519  0.40553406     0.35300
H434        H  0.11848544  0.76272371  0.42999979     0.40400
H435        H  0.11592078  0.70450453  0.32093772     0.40000
H436        H  0.97671774  0.67424891  0.34425122     0.34900
C437        C  0.00320256  0.49273729  0.14259451    -0.26800
C438        C  0.10488682  0.52271620  0.15476023    -0.14900
C439        C  0.09137506  0.54406391  0.13497873     0.35700
C440        C  0.09059893  0.53635587  0.10433456    -0.26300
C441        C  0.10413906  0.50808741  0.09240135    -0.15500
C442        C  0.99747986  0.98791448  0.11180282     0.36800
N443        N  0.01449298  0.95946598  0.10076743    -0.89800
H444        H  0.00888677  0.97981753  0.15753948     0.17900
H445        H  0.07986491  0.55294736  0.08953781     0.17900
N446        N  0.07800181  0.57362583  0.14583487    -0.88800
H447        H  0.04148392  0.96160332  0.10232201     0.35300
H448        H  0.01275268  0.95576658  0.07767757     0.40400
H449        H  0.05163977  0.57521440  0.14211524     0.40000
H450        H  0.09270181  0.59104308  0.13266167     0.34900
C451        C  0.99725984  0.00611644  0.39073519    -0.26800
C452        C  0.09967690  0.98867232  0.41317423    -0.14900
C453        C  0.07763284  0.96628925  0.40219361     0.35700
C454        C  0.07821598  0.96334691  0.37046705    -0.26300
C455        C  0.10082872  0.98178174  0.34914536    -0.15500
C456        C  0.99668957  0.00371157  0.35889407     0.36800
N457        N  0.02169128  0.02111685  0.33726781    -0.89800
H458        H  0.01610616  0.02182506  0.39875746     0.17900
H459        H  0.06138789  0.94588613  0.36229107     0.17900
N460        N  0.05596519  0.94556116  0.42317933    -0.88800
H461        H  0.03915643  0.03369519  0.34867693     0.35300
H462        H  0.00740446  0.03762680  0.32670140     0.40400
H463        H  0.07329632  0.93119054  0.43299418     0.40000
H464        H  0.04075247  0.93091325  0.41147206     0.34900
C465        C  0.11788737  0.85896783  0.04387970    -0.26800
C466        C  0.01839834  0.84375002  0.02341737    -0.14900
C467        C  0.03605149  0.86017717  0.99753767     0.35700
C468        C  0.02676583  0.89131364  0.99264382    -0.26300
C469        C  0.99989144  0.90608838  0.01275825    -0.15500
C470        C  0.10734728  0.88962798  0.03887938     0.36800
N471        N  0.08065022  0.90409324  0.06086051    -0.89800
H472        H  0.10525124  0.84625122  0.06403847     0.17900
H473        H  0.04061084  0.90414928  0.97313393     0.17900
N474        N  0.06375230  0.84548158  0.97676276    -0.88800
H475        H  0.07272543  0.88919585  0.07964859     0.35300
H476        H  0.05817772  0.90723966  0.05035879     0.40400
H477        H  0.08438559  0.84027480  0.98899133     0.40000
H478        H  0.94921100  0.86303665  0.95808182     0.34900
C479        C  0.06655921  0.59668863  0.47030134    -0.26800
C480        C  0.08559932  0.58903328  0.49392308    -0.14900
C481        C  0.97076590  0.61310226  0.51350614     0.35700
C482        C  0.96104303  0.64408460  0.50810781    -0.26300
C483        C  0.06656700  0.65144401  0.48429874    -0.15500
C484        C  0.05687346  0.62747994  0.46521122     0.36800
N485        N  0.03715341  0.63437372  0.44068630    -0.89800
H486        H  0.05920869  0.57838606  0.45564991     0.17900
H487        H  0.96992708  0.66270573  0.52156678     0.17900
N488        N  0.98680494  0.60528902  0.03962959    -0.88800
H489        H  0.03244676  0.61416411  0.42883035     0.35300
H490        H  0.01231032  0.64267310  0.45056048     0.40400
H491        H  0.01121005  0.59598457  0.02999629     0.40000
H492        H  0.99254132  0.62563851  0.05081909     0.34900
O493        O  0.08386650  0.94965283  0.51476724    -0.72300
O494        O  0.06419346  0.53429364  0.00118157    -0.72500
O495        O  0.07541147  0.98600069  0.96660979    -0.72400
O496        O  0.07874449  0.50090898  0.54988194    -0.72400
O497        O  0.01050848  0.50364549  0.54195004    -0.72300
O498        O  0.00600589  0.00079688  0.95499742    -0.72400
O499        O  0.99543298  0.54603850  0.00114175    -0.72300
O500        O  0.01454733  0.95918187  0.49884670    -0.72500
V501        V  0.07480182  0.99243849  0.50873547     1.35200
V502        V  0.00395421  0.50226542  0.00073112     1.35200
C503        C  0.99012322  0.93973594  0.50830227     0.76900
C504        C  0.08871248  0.55440663  0.99825899     0.77000
C505        C  0.10201685  0.99256873  0.94661067     0.76900
C506        C  0.98244700  0.50289067  0.56136128     0.76800
C507        C  0.05383229  0.68293131  0.97766099     0.79700
N508        N  0.04959891  0.70499708  0.99989098    -0.78600
C509        C  0.04423000  0.73535190  0.99237953     0.82200
N510        N  0.04350026  0.74357012  0.96252648    -0.77500
C511        C  0.04820243  0.72166228  0.94025947     0.82200
N512        N  0.05344394  0.69170766  0.94816922    -0.80300
C513        C  0.02827940  0.81238578  0.53058305     0.79700
N514        N  0.03383411  0.79024602  0.50854390    -0.78600
C515        C  0.04242026  0.76066544  0.51593165     0.82200
N516        N  0.04563056  0.75337699  0.54549351    -0.78500
C517        C  0.04038271  0.77553659  0.56751815     0.82200
N518        N  0.03169469  0.80487400  0.55991998    -0.80300
O519        O  0.14891601  0.75491524  0.80045709    -0.72300
O520        O  0.14625744  0.75837300  0.71460798    -0.72500
O521        O  0.13733438  0.71316046  0.75773567    -0.72400
O522        O  0.15790348  0.80005183  0.75700459    -0.72400
O523        O  0.08869377  0.78828790  0.75423518    -0.72300
O524        O  0.06805094  0.70330551  0.74230702    -0.72400
O525        O  0.07891852  0.75353951  0.70573582    -0.72300
O526        O  0.07767069  0.73796194  0.79079035    -0.72500
V527        V  0.14856629  0.75643020  0.75730091     1.35200
V528        V  0.07735638  0.74598589  0.74846587     1.35200
C529        C  0.05055880  0.74380840  0.81017637     0.76900
C530        C  0.05023077  0.75777334  0.69549190     0.77000
C531        C  0.03651191  0.69323813  0.74769414     0.76900
C532        C  0.06439838  0.80832380  0.75721691     0.76800
C533        C  0.11897489  0.56841154  0.72482801     0.79700
N534        N  0.11354223  0.54568126  0.74676603    -0.78600
C535        C  0.10646913  0.51592662  0.73915938     0.82200
N536        N  0.10514195  0.50887710  0.70928631    -0.78500
C537        C  0.11007590  0.53157387  0.68720317     0.82200
N538        N  0.11703750  0.56119263  0.69519174    -0.80300
C539        C  0.09687875  0.93655607  0.77948182     0.79700
N540        N  0.10235818  0.95869239  0.75693744    -0.78600
C541        C  0.10775209  0.98895841  0.76406815     0.82200
N542        N  0.10733463  0.99704986  0.79396579    -0.78500
C543        C  0.10136697  0.97503782  0.81663810     0.82200
N544        N  0.09608793  0.94505405  0.80906465    -0.80300
C545        C  0.09224608  0.84831493  0.78520077    -0.26800
C546        C  0.07286987  0.84120066  0.76168930    -0.14900
C547        C  0.06285531  0.86519546  0.74279318     0.35700
C548        C  0.07224654  0.89619777  0.74816455    -0.26300
C549        C  0.09069223  0.90351173  0.77243594    -0.15500
C550        C  0.10115446  0.87917059  0.79095189     0.36800
N551        N  0.99612082  0.88861588  0.81254890    -0.89800
H552        H  0.97693767  0.83198834  0.79674784     0.17900
H553        H  0.06415659  0.91478258  0.73399130     0.17900
N554        N  0.16527490  0.85833717  0.71709065    -0.88800
H555        H  0.00317910  0.86824074  0.82326243     0.35300
H556        H  0.01980277  0.89932051  0.80242682     0.40400
H557        H  0.14128711  0.84817502  0.72718139     0.40000
H558        H  0.15869169  0.87843786  0.70566557     0.34900
C559        C  0.03678664  0.61320226  0.71232265    -0.26800
C560        C  0.12994518  0.60020931  0.73240092    -0.14900
C561        C  0.11564725  0.61506452  0.75998703     0.35700
C562        C  0.12691843  0.64554415  0.76539662    -0.26300
C563        C  0.02830376  0.66017879  0.74266935    -0.15500
C564        C  0.04654520  0.64400695  0.71729669     0.36800
N565        N  0.07375353  0.65924340  0.69580860    -0.89800
H566        H  0.05083839  0.60086948  0.69306875     0.17900
H567        H  0.11515311  0.65744410  0.78595697     0.17900
N568        N  0.08921300  0.59958289  0.78195815    -0.88800
H569        H  0.08240951  0.64475534  0.67722455     0.35300
H570        H  0.09573449  0.66264879  0.70687185     0.40400
H571        H  0.06669943  0.59619385  0.77154079     0.40000
H572        H  0.08146913  0.61378815  0.80094596     0.34900
C573        C  0.15437985  0.74059565  0.64771774    -0.26800
C574        C  0.04984602  0.76174837  0.66238283    -0.14900
C575        C  0.06910581  0.78589039  0.64482332     0.35700
C576        C  0.06626259  0.78900828  0.61366043    -0.26300
C577        C  0.04504854  0.76868043  0.59947740    -0.15500
C578        C  0.15257534  0.74377353  0.61633624     0.36800
N579        N  0.13196602  0.72157684  0.60245991    -0.89800
H580        H  0.14044802  0.72137841  0.66063063     0.17900
H581        H  0.08047532  0.80783974  0.60044717     0.17900
N582        N  0.09084440  0.80819354  0.65770871    -0.88800
H583        H  0.11264783  0.73351798  0.59263398     0.35300
H584        H  0.14873222  0.71019454  0.58507033     0.40400
H585        H  0.08007400  0.83026654  0.65525619     0.40000
H586        H  0.96547458  0.80509586  0.68093333     0.34900
C587        C  0.03086354  0.75865540  0.86480553    -0.26800
C588        C  0.05090295  0.73902865  0.84342919    -0.14900
C589        C  0.07042065  0.71451465  0.85412513     0.35700
C590        C  0.06943382  0.71015232  0.88572838    -0.26300
C591        C  0.04935577  0.72951290  0.90725377    -0.15500
C592        C  0.03000323  0.75427762  0.89668486     0.36800
N593        N  0.13561796  0.77482348  0.91844355    -0.89800
H594        H  0.14232248  0.77871428  0.85694382     0.17900
H595        H  0.08461510  0.69125637  0.89357926     0.17900
N596        N  0.08982198  0.69307136  0.83304609    -0.88800
H597        H  0.12317409  0.79205091  0.90707262     0.35300
H598        H  0.11534757  0.76116427  0.93077961     0.40400
H599        H  0.11248329  0.70469596  0.82204846     0.40000
H600        H  0.97186072  0.67342793  0.84380067     0.34900
C601        C  0.00615592  0.49403027  0.64183982    -0.26800
C602        C  0.10929819  0.52406544  0.65449064    -0.14900
C603        C  0.09429310  0.54475113  0.63508541     0.35700
C604        C  0.09385300  0.53711596  0.60438462    -0.26300
C605        C  0.10920118  0.50962104  0.59204932    -0.15500
C606        C  0.99266767  0.98736850  0.61215777     0.36800
N607        N  0.00608998  0.95748366  0.60153049    -0.89800
H608        H  0.00296375  0.97806672  0.65799244     0.17900
H609        H  0.08181059  0.55312336  0.58989005     0.17900
N610        N  0.07892564  0.57346876  0.64644237    -0.88800
H611        H  0.03316766  0.95708220  0.60310132     0.35300
H612        H  0.00400585  0.95409520  0.57845756     0.40400
H613        H  0.05244978  0.57367104  0.64286531     0.40000
H614        H  0.09231792  0.59169189  0.63346361     0.34900
C615        C  0.99955282  0.00707687  0.89043843    -0.26800
C616        C  0.10043145  0.98935721  0.91339344    -0.14900
C617        C  0.07843012  0.96667442  0.90285497     0.35700
C618        C  0.07808421  0.96384518  0.87126990    -0.26300
C619        C  0.09974904  0.98268283  0.84962164    -0.15500
C620        C  0.99866734  0.00478469  0.85860633     0.36800
N621        N  0.02308267  0.02266791  0.83691607    -0.89800
H622        H  0.01816988  0.02304018  0.89842654     0.17900
H623        H  0.06131064  0.94611621  0.86345539     0.17900
N624        N  0.05774279  0.94555650  0.92413121    -0.88800
H625        H  0.04044746  0.03545963  0.84824429     0.35300
H626        H  0.00830258  0.03900076  0.82662351     0.40400
H627        H  0.07569973  0.93148001  0.93351632     0.40000
H628        H  0.04244551  0.93066968  0.91274761     0.34900
C629        C  0.11748201  0.85927781  0.54410720    -0.26800
C630        C  0.01780694  0.84436785  0.52333629    -0.14900
C631        C  0.03516953  0.86117422  0.49758856     0.35700
C632        C  0.02535995  0.89221281  0.49295508    -0.26300
C633        C  0.99818806  0.90653559  0.51312651    -0.15500
C634        C  0.10666890  0.88985246  0.53923322     0.36800
N635        N  0.07996602  0.90415664  0.56133723    -0.89800
H636        H  0.10491061  0.84644072  0.56419867     0.17900
H637        H  0.03907558  0.90535713  0.47360870     0.17900
N638        N  0.06315958  0.84699132  0.47670062    -0.88800
H639        H  0.07234645  0.88925032  0.58017359     0.35300
H640        H  0.05734566  0.90709949  0.55098892     0.40400
H641        H  0.08393015  0.84209097  0.48886903     0.40000
H642        H  0.94514807  0.86160037  0.45726319     0.34900
C643        C  0.06174485  0.59500434  0.97001943    -0.26800
C644        C  0.08025496  0.58741529  0.99402452    -0.14900
C645        C  0.96741256  0.61250603  0.01501125     0.35700
C646        C  0.95851832  0.64356951  0.00901296    -0.26300
C647        C  0.06039197  0.64967656  0.98456049    -0.15500
C648        C  0.05167834  0.62572853  0.96498308     0.36800
N649        N  0.03263931  0.63255479  0.93999604    -0.89800
H650        H  0.05518129  0.57672029  0.95499627     0.17900
H651        H  0.96765440  0.66220715  0.02230788     0.17900
N652        N  0.99066028  0.60588230  0.53778364    -0.88800
H653        H  0.02863222  0.61237332  0.92783530     0.35300
H654        H  0.00747909  0.64049010  0.94943350     0.40400
H655        H  0.01521892  0.59715139  0.52777677     0.40000
H656        H  0.99603643  0.62616284  0.54924450     0.34900
O657        O  0.20822277  0.44978223  0.01460313    -0.72300
O658        O  0.18857716  0.03480943  0.50194873    -0.72500
O659        O  0.20134361  0.48744777  0.46626818    -0.72400
O660        O  0.20247634  0.99864270  0.04970302    -0.72400
O661        O  0.13495507  0.00346437  0.04119432    -0.72300
O662        O  0.13133089  0.50124727  0.45434886    -0.72400
O663        O  0.11946217  0.04621106  0.49904515    -0.72300
O664        O  0.13897442  0.45794597  0.99785150    -0.72500
V665        V  0.19961322  0.49278218  0.00895839     1.35200
V666        V  0.12877309  0.00258641  0.49915624     1.35200
C667        C  0.11429976  0.43881321  0.00752546     0.76900
C668        C  0.21288425  0.05511694  0.49866473     0.77000
C669        C  0.22819345  0.49370346  0.44639641     0.76900
C670        C  0.10704143  0.00281913  0.06074711     0.76800
C671        C  0.17559301  0.18279194  0.47763381     0.79700
N672        N  0.17147741  0.20496589  0.49973040    -0.78600
C673        C  0.16586280  0.23522565  0.49214233     0.82200
N674        N  0.16480125  0.24326499  0.46227328    -0.77500
C675        C  0.16935420  0.22121919  0.44009416     0.82200
N676        N  0.17482089  0.19134012  0.44813415    -0.80300
C677        C  0.15303493  0.31170737  0.02946141     0.79700
N678        N  0.15824635  0.28929481  0.00768618    -0.78600
C679        C  0.16694457  0.25981095  0.01530397     0.82200
N680        N  0.17051135  0.25286320  0.04486814    -0.78500
C681        C  0.16561661  0.27533520  0.06661156     0.82200
N682        N  0.15686674  0.30455176  0.05876588    -0.80300
O683        O  0.27089224  0.25422801  0.29877793    -0.72300
O684        O  0.26993304  0.25874315  0.21253812    -0.72500
O685        O  0.25936371  0.21314073  0.25543319    -0.72400
O686        O  0.28129288  0.29973387  0.25566939    -0.72400
O687        O  0.21118639  0.28875546  0.25466349    -0.72300
O688        O  0.18996509  0.20416124  0.24136533    -0.72400
O689        O  0.20158058  0.25487836  0.20558555    -0.72300
O690        O  0.19935102  0.23788896  0.29053247    -0.72500
V691        V  0.27131393  0.25625033  0.25544990     1.35200
V692        V  0.19953336  0.24664300  0.24823991     1.35200
C693        C  0.17209041  0.24361558  0.30982160     0.76900
C694        C  0.17306122  0.25940930  0.19515060     0.77000
C695        C  0.15836711  0.19421644  0.24630460     0.76900
C696        C  0.18708849  0.30898552  0.25763909     0.76800
C697        C  0.24055306  0.06746455  0.22477598     0.79700
N698        N  0.23571165  0.04491732  0.24693700    -0.78600
C699        C  0.22924806  0.01492257  0.23961373     0.82200
N700        N  0.22783135  0.00750133  0.20982170    -0.78500
C701        C  0.23211526  0.03001834  0.18753785     0.82200
N702        N  0.23862697  0.05982986  0.19523489    -0.80300
C703        C  0.22186191  0.43694448  0.27959200     0.79700
N704        N  0.22794353  0.45890746  0.25690515    -0.78600
C705        C  0.23442367  0.48904270  0.26382581     0.82200
N706        N  0.23448556  0.49719546  0.29363743    -0.78500
C707        C  0.22793862  0.47538580  0.31644171     0.82200
N708        N  0.22156316  0.44552377  0.30910543    -0.80300
C709        C  0.21544589  0.34872920  0.28562297    -0.26800
C710        C  0.19592448  0.34182516  0.26215431    -0.14900
C711        C  0.18632949  0.36596362  0.24318866     0.35700
C712        C  0.19615042  0.39688060  0.24853558    -0.26300
C713        C  0.21477262  0.40397620  0.27275622    -0.15500
C714        C  0.22490382  0.37948439  0.29126700     0.36800
N715        N  0.11882897  0.38799358  0.31306924    -0.89800
H716        H  0.09976866  0.33133163  0.29698258     0.17900
H717        H  0.18840279  0.41556359  0.23429571     0.17900
N718        N  0.29103517  0.35790765  0.21580159    -0.88800
H719        H  0.12574207  0.36759680  0.32383305     0.35300
H720        H  0.14260398  0.39863618  0.30304949     0.40400
H721        H  0.26636533  0.34878728  0.22564157     0.40000
H722        H  0.28580230  0.37804836  0.20376966     0.34900
C723        C  0.16079882  0.11353594  0.21187332    -0.26800
C724        C  0.25139674  0.09945896  0.23186661    -0.14900
C725        C  0.23612720  0.11522037  0.25862402     0.35700
C726        C  0.24728305  0.14590841  0.26341273    -0.26300
C727        C  0.15017813  0.16116137  0.24101777    -0.15500
C728        C  0.16956731  0.14470153  0.21636308     0.36800
N729        N  0.19687908  0.15997554  0.19499879    -0.89800
H730        H  0.17593706  0.10092961  0.19332117     0.17900
H731        H  0.23474896  0.15850431  0.28328106     0.17900
N732        N  0.20901868  0.10036769  0.28044680    -0.88800
H733        H  0.20619446  0.14526121  0.17676143     0.35300
H734        H  0.21849979  0.16401499  0.20633786     0.40400
H735        H  0.18711905  0.09622577  0.26945098     0.40000
H736        H  0.20041504  0.11529434  0.29868304     0.34900
C737        C  0.27838946  0.24133006  0.14586683    -0.26800
C738        C  0.17299984  0.26320953  0.16199192    -0.14900
C739        C  0.19331704  0.28658315  0.14416158     0.35700
C740        C  0.19132129  0.28904841  0.11278273    -0.26300
C741        C  0.16986396  0.26884077  0.09870500    -0.15500
C742        C  0.27716348  0.24425679  0.11437782     0.36800
N743        N  0.25602780  0.22246218  0.10054376    -0.89800
H744        H  0.26341518  0.22272370  0.15891651     0.17900
H745        H  0.20633231  0.30730220  0.09932616     0.17900
N746        N  0.21529652  0.30874633  0.15696296    -0.88800
H747        H  0.23734357  0.23478969  0.09028593     0.35300
H748        H  0.27261816  0.21048989  0.08347495     0.40400
H749        H  0.20538006  0.33098235  0.15361853     0.40000
H750        H  0.08571399  0.30595932  0.18060755     0.34900
C751        C  0.15215561  0.25818906  0.36450282    -0.26800
C752        C  0.17205905  0.23848689  0.34311161    -0.14900
C753        C  0.19124832  0.21375394  0.35382480     0.35700
C754        C  0.19008203  0.20927834  0.38546454    -0.26300
C755        C  0.17031865  0.22886406  0.40701214    -0.15500
C756        C  0.15126945  0.25380938  0.39639183     0.36800
N757        N  0.25896016  0.27478432  0.41708997    -0.89800
H758        H  0.26465905  0.27802284  0.35559621     0.17900
H759        H  0.20501474  0.19021241  0.39331400     0.17900
N760        N  0.21062225  0.19231287  0.33271291    -0.88800
H761        H  0.24694262  0.29227324  0.40569574     0.35300
H762        H  0.23836792  0.26173060  0.42976913     0.40400
H763        H  0.23331633  0.20391516  0.32172629     0.40000
H764        H  0.09246464  0.17190013  0.34285149     0.34900
C765        C  0.12917856  0.99343884  0.14157267    -0.26800
C766        C  0.23134276  0.02217123  0.15486133    -0.14900
C767        C  0.21586613  0.04248071  0.13542148     0.35700
C768        C  0.21592659  0.03486937  0.10464254    -0.26300
C769        C  0.23221138  0.00778109  0.09221883    -0.15500
C770        C  0.11825936  0.48655838  0.11178042     0.36800
N771        N  0.13237804  0.45692740  0.10105497    -0.89800
H772        H  0.12868514  0.47741718  0.15764654     0.17900
H773        H  0.20356754  0.05063008  0.09013713     0.17900
N774        N  0.19964380  0.07087080  0.14678966    -0.88800
H775        H  0.15946573  0.45701441  0.10261046     0.35300
H776        H  0.13034617  0.45349007  0.07798000     0.40400
H777        H  0.17329915  0.07063962  0.14287358     0.40000
H778        H  0.21276035  0.08935749  0.13402423     0.34900
C779        C  0.12179591  0.50834022  0.39021962    -0.26800
C780        C  0.22695170  0.49026249  0.41311937    -0.14900
C781        C  0.20378435  0.46852206  0.40263718     0.35700
C782        C  0.20352737  0.46561925  0.37104903    -0.26300
C783        C  0.22658384  0.48322454  0.34933263    -0.15500
C784        C  0.11993258  0.50594560  0.35856569     0.36800
N785        N  0.14203409  0.52543996  0.33659943    -0.89800
H786        H  0.13935720  0.52549873  0.39788019     0.17900
H787        H  0.18574597  0.44871119  0.36328308     0.17900
N788        N  0.18177524  0.44834862  0.42398168    -0.88800
H789        H  0.15892642  0.53917572  0.34754727     0.35300
H790        H  0.12540760  0.54090296  0.32725090     0.40400
H791        H  0.19878277  0.43356662  0.43371022     0.40000
H792        H  0.16582471  0.43406781  0.41261203     0.34900
C793        C  0.24079764  0.35807896  0.04181556    -0.26800
C794        C  0.14205759  0.34350740  0.02211992    -0.14900
C795        C  0.15767165  0.35974488  0.99536122     0.35700
C796        C  0.14760813  0.39071326  0.99076297    -0.26300
C797        C  0.12189892  0.40549808  0.01199273    -0.15500
C798        C  0.23009958  0.38881387  0.03740427     0.36800
N799        N  0.20323801  0.40277757  0.05961005    -0.89800
H800        H  0.22806249  0.34492772  0.06162941     0.17900
H801        H  0.16002870  0.40345914  0.97063860     0.17900
N802        N  0.18423241  0.34511022  0.97342025    -0.88800
H803        H  0.19525669  0.38745942  0.07804625     0.35300
H804        H  0.18084213  0.40620035  0.04906992     0.40400
H805        H  0.20623934  0.34076879  0.98426352     0.40000
H806        H  0.07275792  0.36274520  0.95946199     0.34900
C807        C  0.18482688  0.09499563  0.47056454    -0.26800
C808        C  0.20394015  0.08795014  0.49430599    -0.14900
C809        C  0.09012732  0.11194828  0.51398457     0.35700
C810        C  0.08093978  0.14301356  0.50837172    -0.26300
C811        C  0.18278294  0.14974200  0.48468144    -0.15500
C812        C  0.17412101  0.12548870  0.46544615     0.36800
N813        N  0.15455602  0.13177970  0.44068537    -0.89800
H814        H  0.17829937  0.07646073  0.45580192     0.17900
H815        H  0.09008670  0.16156564  0.52176188     0.17900
N816        N  0.11366970  0.10556088  0.03754141    -0.88800
H817        H  0.15054834  0.11138955  0.42884066     0.35300
H818        H  0.12941997  0.13960033  0.45029746     0.40400
H819        H  0.13827265  0.09670531  0.02781459     0.40000
H820        H  0.11896675  0.12591843  0.04891572     0.34900
O821        O  0.21118791  0.45096230  0.51425429    -0.72300
O822        O  0.19209129  0.03485504  0.00197966    -0.72500
O823        O  0.19791840  0.48615555  0.96658217    -0.72400
O824        O  0.19912240  0.99993026  0.55045423    -0.72400
O825        O  0.13178544  0.00392495  0.54163456    -0.72300
O826        O  0.12800465  0.50051078  0.95468318    -0.72400
O827        O  0.12298103  0.04619499  0.99878461    -0.72300
O828        O  0.14209854  0.45872571  0.49774982    -0.72500
V829        V  0.20309129  0.49400980  0.50858986     1.35200
V830        V  0.13143027  0.00238081  0.99876668     1.35200
C831        C  0.11710284  0.43996116  0.50762050     0.76900
C832        C  0.21684678  0.05475878  0.99841121     0.77000
C833        C  0.22466192  0.49271555  0.94669623     0.76900
C834        C  0.10381163  0.00260899  0.56106394     0.76800
C835        C  0.18360022  0.18342473  0.97703630     0.79700
N836        N  0.17857134  0.20552373  0.99921515    -0.78600
C837        C  0.17250182  0.23570247  0.99155542     0.82200
N838        N  0.17173136  0.24366619  0.96165962    -0.77500
C839        C  0.17726039  0.22173760  0.93945966     0.82200
N840        N  0.18330582  0.19196538  0.94745515    -0.80300
C841        C  0.15082860  0.31161591  0.53026423     0.79700
N842        N  0.15447269  0.28920044  0.50847075    -0.78600
C843        C  0.16177100  0.25933717  0.51595047     0.82200
N844        N  0.16565063  0.25203209  0.54539598    -0.78500
C845        C  0.16230472  0.27448105  0.56720639     0.82200
N846        N  0.15484378  0.30409901  0.55946186    -0.80300
O847        O  0.27511076  0.25555251  0.79863264    -0.72300
O848        O  0.27200251  0.25893242  0.71272500    -0.72500
O849        O  0.26273100  0.21389619  0.75605371    -0.72400
O850        O  0.28431067  0.30048687  0.75497554    -0.72400
O851        O  0.21452852  0.28757804  0.75334821    -0.72300
O852        O  0.19244286  0.20278995  0.74140833    -0.72400
O853        O  0.20343569  0.25309659  0.70492553    -0.72300
O854        O  0.20338007  0.23705029  0.78981280    -0.72500
V855        V  0.27448351  0.25700747  0.75544835     1.35200
V856        V  0.20245904  0.24535796  0.74759854     1.35200
C857        C  0.17658795  0.24288002  0.80955176     0.76900
C858        C  0.17455690  0.25764395  0.69505602     0.77000
C859        C  0.16077558  0.19303206  0.74696894     0.76900
C860        C  0.19050497  0.30788214  0.75672454     0.76800
C861        C  0.24130213  0.06925894  0.72492537     0.79700
N862        N  0.23639043  0.04655174  0.74693249    -0.78600
C863        C  0.22870729  0.01684031  0.73953819     0.82200
N864        N  0.22610182  0.00990667  0.70988281    -0.78500
C865        C  0.23057211  0.03257301  0.68774836     0.82200
N866        N  0.23835795  0.06204805  0.69551283    -0.80300
C867        C  0.22263237  0.43645776  0.77896500     0.79700
N868        N  0.22848535  0.45868347  0.75650293    -0.78600
C869        C  0.23350071  0.48897062  0.76383097     0.82200
N870        N  0.23232008  0.49699892  0.79380690    -0.78500
C871        C  0.22597115  0.47495718  0.81640134     0.82200
N872        N  0.22106742  0.44491928  0.80868440    -0.80300
C873        C  0.21897941  0.34806583  0.78430666    -0.26800
C874        C  0.19951829  0.34080522  0.76086948    -0.14900
C875        C  0.18968958  0.36475882  0.74180408     0.35700
C876        C  0.19887532  0.39584517  0.74719956    -0.26300
C877        C  0.21700044  0.40332230  0.77163679    -0.15500
C878        C  0.22774101  0.37901535  0.79003175     0.36800
N879        N  0.12142898  0.38843374  0.81125213    -0.89800
H880        H  0.10275912  0.33170696  0.79516140     0.17900
H881        H  0.19078297  0.41437112  0.73295949     0.17900
N882        N  0.29295761  0.35842843  0.71485923    -0.88800
H883        H  0.12872771  0.36807720  0.82185204     0.35300
H884        H  0.14498449  0.39936142  0.80113363     0.40400
H885        H  0.26862567  0.34875410  0.72480468     0.40000
H886        H  0.28701791  0.37854179  0.70311915     0.34900
C887        C  0.16005956  0.11315018  0.71129983    -0.26800
C888        C  0.25299557  0.10097932  0.73196215    -0.14900
C889        C  0.23947206  0.11626605  0.75947767     0.35700
C890        C  0.25143945  0.14663838  0.76434063    -0.26300
C891        C  0.15205684  0.16008681  0.74177940    -0.15500
C892        C  0.16985967  0.14397043  0.71617517     0.36800
N893        N  0.19665043  0.15929375  0.69436120    -0.89800
H894        H  0.17378369  0.10082166  0.69186670     0.17900
H895        H  0.24028613  0.15885602  0.78487574     0.17900
N896        N  0.21301153  0.10138269  0.78187583    -0.88800
H897        H  0.20484268  0.14491288  0.67559314     0.35300
H898        H  0.21898023  0.16257453  0.70500367     0.40400
H899        H  0.19023183  0.09823683  0.77176397     0.40000
H900        H  0.20583394  0.11589384  0.80072715     0.34900
C901        C  0.27863954  0.24175037  0.64624037    -0.26800
C902        C  0.17357039  0.26135181  0.66195015    -0.14900
C903        C  0.19259809  0.28531779  0.64395196     0.35700
C904        C  0.18913203  0.28821749  0.61287796    -0.26300
C905        C  0.16768887  0.26770072  0.59909302    -0.15500
C906        C  0.27672367  0.24458792  0.61484830     0.36800
N907        N  0.25486276  0.22300576  0.60152766    -0.89800
H908        H  0.26371975  0.22330098  0.65958357     0.17900
H909        H  0.20313721  0.30699568  0.59938292     0.17900
N910        N  0.21481519  0.30761063  0.65629484    -0.88800
H911        H  0.23612786  0.23553646  0.59152843     0.35300
H912        H  0.27091963  0.21078833  0.58429830     0.40400
H913        H  0.20407280  0.32970863  0.65392633     0.40000
H914        H  0.09050246  0.30520164  0.67981998     0.34900
C915        C  0.15639358  0.25674988  0.86438114    -0.26800
C916        C  0.17759537  0.23813305  0.84278167    -0.14900
C917        C  0.19906204  0.21489177  0.85329509     0.35700
C918        C  0.19901219  0.21100685  0.88485832    -0.26300
C919        C  0.17775865  0.22936632  0.90651527    -0.15500
C920        C  0.15627557  0.25267296  0.89619072     0.36800
N921        N  0.26268032  0.27460091  0.91683441    -0.89800
H922        H  0.26892939  0.27860302  0.85540708     0.17900
H923        H  0.21568875  0.19317179  0.89261211     0.17900
N924        N  0.21937159  0.19404102  0.83217145    -0.88800
H925        H  0.25042581  0.29202040  0.90554956     0.35300
H926        H  0.24226562  0.26123735  0.92934216     0.40400
H927        H  0.24090599  0.20656641  0.82045351     0.40000
H928        H  0.09417834  0.17215015  0.84249069     0.34900
C929        C  0.12727605  0.99317709  0.64149986    -0.26800
C930        C  0.22908803  0.02501152  0.65510910    -0.14900
C931        C  0.21910723  0.04745775  0.63441220     0.35700
C932        C  0.21850527  0.03961286  0.60376993    -0.26300
C933        C  0.22870727  0.01007562  0.59283403    -0.15500
C934        C  0.12511482  0.48891012  0.61103821     0.36800
N935        N  0.14105967  0.46003887  0.59997791    -0.89800
H936        H  0.13648861  0.48027683  0.65671014     0.17900
H937        H  0.21040030  0.05696421  0.58824302     0.17900
N938        N  0.20918271  0.07826447  0.64426509    -0.88800
H939        H  0.16813986  0.46142431  0.60140354     0.35300
H940        H  0.13903861  0.45645298  0.57692658     0.40400
H941        H  0.18351874  0.08232134  0.63960457     0.40000
H942        H  0.22640490  0.09406778  0.63112388     0.34900
C943        C  0.12121885  0.50645180  0.89041254    -0.26800
C944        C  0.22340943  0.48954707  0.91335568    -0.14900
C945        C  0.20071953  0.46757828  0.90255743     0.35700
C946        C  0.20097523  0.46463329  0.87087209    -0.26300
C947        C  0.22376650  0.48273386  0.84940808    -0.15500
C948        C  0.12032666  0.50427893  0.85861098     0.36800
N949        N  0.14436402  0.52262918  0.83703610    -0.89800
H950        H  0.13951248  0.52268820  0.89845835     0.17900
H951        H  0.18378983  0.44738310  0.86283144     0.17900
N952        N  0.17870998  0.44722610  0.92368472    -0.88800
H953        H  0.16164637  0.53546312  0.84841253     0.35300
H954        H  0.12925274  0.53893418  0.82705395     0.40400
H955        H  0.19577420  0.43254676  0.93346028     0.40000
H956        H  0.16302988  0.43287822  0.91211877     0.34900
C957        C  0.24222151  0.35902737  0.54184758    -0.26800
C958        C  0.14156923  0.34389227  0.52293884    -0.14900
C959        C  0.15918212  0.36011934  0.49691304     0.35700
C960        C  0.15038038  0.39140135  0.49209492    -0.26300
C961        C  0.12401830  0.40652912  0.51244948    -0.15500
C962        C  0.23200800  0.38986382  0.53727946     0.36800
N963        N  0.20505651  0.40406559  0.55922243    -0.89800
H964        H  0.22912046  0.34597559  0.56162232     0.17900
H965        H  0.16426632  0.40409056  0.47248373     0.17900
N966        N  0.18642498  0.34509074  0.47594437    -0.88800
H967        H  0.19668052  0.38882622  0.57764217     0.35300
H968        H  0.18287507  0.40764341  0.54843949     0.40400
H969        H  0.20722918  0.33974970  0.48793909     0.40000
H970        H  0.07112419  0.36191987  0.45541873     0.34900
C971        C  0.18921709  0.09535532  0.97078121    -0.26800
C972        C  0.20865849  0.08781100  0.99417517    -0.14900
C973        C  0.09409591  0.11263336  0.01300795     0.35700
C974        C  0.08441355  0.14358817  0.00735977    -0.26300
C975        C  0.18998008  0.15024411  0.98419666    -0.15500
C976        C  0.17976831  0.12617760  0.96547696     0.36800
N977        N  0.15987827  0.13300950  0.94105055    -0.89800
H978        H  0.18152691  0.07697290  0.95638187     0.17900
H979        H  0.09313559  0.16229507  0.02080571     0.17900
N980        N  0.10951892  0.10455546  0.53856243    -0.88800
H981        H  0.15464317  0.11270119  0.92956503     0.35300
H982        H  0.13528060  0.14176996  0.95095563     0.40400
H983        H  0.13408058  0.09559733  0.52887624     0.40000
H984        H  0.11491692  0.12478438  0.55009318     0.34900
O985        O  0.21068713  0.94929177  0.01281929    -0.72300
O986        O  0.19274188  0.53660562  0.50343935    -0.72500
O987        O  0.19852663  0.98510897  0.46564841    -0.72400
O988        O  0.19964570  0.49913751  0.05170135    -0.72400
O989        O  0.13174873  0.50281479  0.04046306    -0.72300
O990        O  0.12805208  0.00166065  0.45612039    -0.72400
O991        O  0.12485989  0.54625701  0.49699098    -0.72300
O992        O  0.14143155  0.95889585  0.99855813    -0.72500
V993        V  0.20251535  0.99228631  0.00710822     1.35200
V994        V  0.13270093  0.50234579  0.49741650     1.35200
C995        C  0.11678505  0.93978101  0.00837436     0.76900
C996        C  0.21746397  0.55653629  0.50008295     0.77000
C997        C  0.22530895  0.99161929  0.44580204     0.76900
C998        C  0.10347275  0.50263907  0.05962778     0.76800
C999        C  0.18427474  0.68501383  0.47740384     0.79700
N1000       N  0.17971566  0.70720250  0.49945589    -0.78600
C1001       C  0.17382121  0.73737829  0.49178349     0.82200
N1002       N  0.17286210  0.74532575  0.46187834    -0.77500
C1003       C  0.17788896  0.72326325  0.43972654     0.82200
N1004       N  0.18361759  0.69343836  0.44784941    -0.80300
C1005       C  0.15474780  0.81241179  0.03027569     0.79700
N1006       N  0.15950669  0.79021771  0.00827155    -0.78600
C1007       C  0.16771318  0.76054104  0.01559042     0.82200
N1008       N  0.17126413  0.75316724  0.04505013    -0.78500
C1009       C  0.16677433  0.77536432  0.06704704     0.82200
N1010       N  0.15849514  0.80483145  0.05952673    -0.80300
O1011       O  0.27691761  0.75319259  0.29999022    -0.72300
O1012       O  0.27370170  0.75740682  0.21426639    -0.72500
O1013       O  0.26472714  0.71176028  0.25681847    -0.72400
O1014       O  0.28593702  0.79850629  0.25708163    -0.72400
O1015       O  0.21654963  0.78759213  0.25260927    -0.72300
O1016       O  0.19486254  0.70223977  0.24182209    -0.72400
O1017       O  0.20580382  0.75224214  0.20478464    -0.72300
O1018       O  0.20562508  0.73750049  0.28982862    -0.72500
V1019       V  0.27626258  0.75499657  0.25688592     1.35200
V1020       V  0.20477690  0.74509619  0.24748725     1.35200
C1021       C  0.17891789  0.74398559  0.30942332     0.76900
C1022       C  0.17694853  0.75650847  0.19481735     0.77000
C1023       C  0.16316152  0.69258331  0.24796114     0.76900
C1024       C  0.19237168  0.80779916  0.25519970     0.76800
C1025       C  0.25221998  0.56517372  0.22396199     0.79700
N1026       N  0.24735111  0.54284970  0.24630464    -0.78600
C1027       C  0.24045343  0.51287359  0.23930183     0.82200
N1028       N  0.23822962  0.50527290  0.20972081    -0.78500
C1029       C  0.24267683  0.52756550  0.18726067     0.82200
N1030       N  0.24986722  0.55736963  0.19454625    -0.80300
C1031       C  0.21884932  0.93732120  0.27800852     0.79700
N1032       N  0.22157720  0.96006096  0.25602538    -0.78600
C1033       C  0.22533712  0.99045186  0.26365726     0.82200
N1034       N  0.22614760  0.99804611  0.29352837    -0.78500
C1035       C  0.22290500  0.97542256  0.31565673     0.82200
N1036       N  0.21910990  0.94534448  0.30761652    -0.80300
C1037       C  0.22055063  0.84882379  0.28185791    -0.26800
C1038       C  0.20076344  0.84093251  0.25884973    -0.14900
C1039       C  0.18886046  0.86459256  0.24054464     0.35700
C1040       C  0.19641831  0.89596949  0.24626460    -0.26300
C1041       C  0.21492716  0.90402419  0.27029339    -0.15500
C1042       C  0.22766473  0.88003642  0.28794362     0.36800
N1043       N  0.12342101  0.88531150  0.31435565    -0.89800
H1044       H  0.10348622  0.82912423  0.29780622     0.17900
H1045       H  0.18668956  0.91422322  0.23265366     0.17900
N1046       N  0.29753094  0.85698494  0.21646840    -0.88800
H1047       H  0.12922489  0.86476176  0.32547168     0.35300
H1048       H  0.14775498  0.89535673  0.30494529     0.40400
H1049       H  0.27265960  0.84774568  0.22555620     0.40000
H1050       H  0.29274534  0.87724829  0.20442899     0.34900
C1051       C  0.15231441  0.61600319  0.20884237    -0.26800
C1052       C  0.26115301  0.59760719  0.23112033    -0.14900
C1053       C  0.24415702  0.61303840  0.25748379     0.35700
C1054       C  0.25384241  0.64404435  0.26269424    -0.26300
C1055       C  0.15372636  0.65984442  0.24294486    -0.15500
C1056       C  0.16575425  0.64546584  0.21466366     0.36800
N1057       N  0.19004628  0.66150442  0.19129890    -0.89800
H1058       H  0.16040417  0.60586909  0.18660655     0.17900
H1059       H  0.24061045  0.65611652  0.28267630     0.17900
N1060       N  0.21670979  0.59750139  0.27841246    -0.88800
H1061       H  0.19443755  0.64848573  0.17113902     0.35300
H1062       H  0.21454230  0.66294362  0.19906217     0.40400
H1063       H  0.19557287  0.59305389  0.26651391     0.40000
H1064       H  0.20692018  0.61214419  0.29657325     0.34900
C1065       C  0.28019241  0.73961911  0.14796854    -0.26800
C1066       C  0.17625487  0.76079187  0.16178976    -0.14900
C1067       C  0.19599175  0.78470800  0.14424824     0.35700
C1068       C  0.19308252  0.78809514  0.11313221    -0.26300
C1069       C  0.17133735  0.76827159  0.09896981    -0.15500
C1070       C  0.27722520  0.74264270  0.11680594     0.36800
N1071       N  0.25593199  0.72038938  0.10371917    -0.89800
H1072       H  0.26636425  0.72062235  0.16132104     0.17900
H1073       H  0.20772430  0.80671338  0.09992950     0.17900
N1074       N  0.21835145  0.80651351  0.15708992    -0.88800
H1075       H  0.23628340  0.73228110  0.09430006     0.35300
H1076       H  0.27211932  0.70879555  0.08610713     0.40400
H1077       H  0.20822664  0.82882665  0.15456346     0.40000
H1078       H  0.08991337  0.80445784  0.18082308     0.34900
C1079       C  0.16005931  0.75958014  0.36400385    -0.26800
C1080       C  0.17971594  0.73961926  0.34270178    -0.14900
C1081       C  0.19915005  0.71509999  0.35352571     0.35700
C1082       C  0.19849100  0.71112700  0.38515756    -0.26300
C1083       C  0.17872554  0.73077886  0.40662467    -0.15500
C1084       C  0.15942317  0.75551426  0.39591111     0.36800
N1085       N  0.26431585  0.77546564  0.41723202    -0.89800
H1086       H  0.27077362  0.77795429  0.35571095     0.17900
H1087       H  0.21363261  0.69224376  0.39307637     0.17900
N1088       N  0.21797569  0.69316815  0.33259942    -0.88800
H1089       H  0.25180642  0.79237750  0.40552691     0.35300
H1090       H  0.24408930  0.76194869  0.42980690     0.40400
H1091       H  0.24058223  0.70442404  0.32105618     0.40000
H1092       H  0.10294086  0.67464662  0.34450653     0.34900
C1093       C  0.11791936  0.49397270  0.14287238    -0.26800
C1094       C  0.23801269  0.51999317  0.15535242    -0.14900
C1095       C  0.21789226  0.53954167  0.13882145     0.35700
C1096       C  0.21433382  0.53237020  0.10847098    -0.26300
C1097       C  0.23084694  0.50625675  0.09403159    -0.15500
C1098       C  0.12731952  0.98660145  0.11074123     0.36800
N1099       N  0.14349481  0.95834658  0.09822981    -0.89800
H1100       H  0.14355958  0.97790127  0.15469179     0.17900
H1101       H  0.19925108  0.54767869  0.09571214     0.17900
N1102       N  0.20054930  0.56634963  0.15319714    -0.88800
H1103       H  0.17087796  0.96038103  0.09793843     0.35300
H1104       H  0.13949089  0.95490049  0.07561538     0.40400
H1105       H  0.18205377  0.55799552  0.17150674     0.40000
H1106       H  0.18620949  0.57797446  0.13820225     0.34900
C1107       C  0.12187298  0.00760173  0.39194707    -0.26800
C1108       C  0.22395043  0.98837571  0.41242531    -0.14900
C1109       C  0.20020228  0.96718304  0.40185968     0.35700
C1110       C  0.19959758  0.96464515  0.37026726    -0.26300
C1111       C  0.22232272  0.98253783  0.34861841    -0.15500
C1112       C  0.12258044  0.00454348  0.36002351     0.36800
N1113       N  0.14647996  0.02339975  0.33882222    -0.89800
H1114       H  0.13891325  0.02475792  0.40030313     0.17900
H1115       H  0.18157609  0.94800838  0.36240597     0.17900
N1116       N  0.17781131  0.94724863  0.42312020    -0.88800
H1117       H  0.16254818  0.03714936  0.35058618     0.35300
H1118       H  0.13110997  0.03888403  0.32810821     0.40400
H1119       H  0.19460468  0.93180227  0.43226240     0.40000
H1120       H  0.16115586  0.93367482  0.41177001     0.34900
C1121       C  0.24185556  0.85871218  0.04344311    -0.26800
C1122       C  0.14426189  0.84439633  0.02315050    -0.14900
C1123       C  0.16063200  0.86082963  0.99677838     0.35700
C1124       C  0.15075583  0.89184101  0.99215471    -0.26300
C1125       C  0.12441107  0.90645886  0.01292728    -0.15500
C1126       C  0.23191766  0.88943087  0.03807692     0.36800
N1127       N  0.20553139  0.90447835  0.05988812    -0.89800
H1128       H  0.22878964  0.84630114  0.06362363     0.17900
H1129       H  0.16382887  0.90475043  0.97237366     0.17900
N1130       N  0.18770010  0.84630087  0.97522822    -0.88800
H1131       H  0.19745785  0.88994403  0.07892848     0.35300
H1132       H  0.18305434  0.90769811  0.04941747     0.40400
H1133       H  0.20917454  0.84156101  0.98660986     0.40000
H1134       H  0.07427568  0.86092552  0.95910785     0.34900
C1135       C  0.18937097  0.59682646  0.47234371    -0.26800
C1136       C  0.20928807  0.58957978  0.49551716    -0.14900
C1137       C  0.09459575  0.61247918  0.51360339     0.35700
C1138       C  0.08478058  0.64357161  0.50868883    -0.26300
C1139       C  0.19082357  0.65192451  0.48474531    -0.15500
C1140       C  0.18011245  0.62761259  0.46659776     0.36800
N1141       N  0.16002768  0.63416531  0.44224200    -0.89800
H1142       H  0.18130335  0.57825387  0.45835568     0.17900
H1143       H  0.09220583  0.66177185  0.52337822     0.17900
N1144       N  0.10516061  0.60282846  0.04009172    -0.88800
H1145       H  0.15421494  0.61366945  0.43132105     0.35300
H1146       H  0.13571990  0.64348040  0.45211723     0.40400
H1147       H  0.13082981  0.59535779  0.03161808     0.40000
H1148       H  0.10797299  0.62255346  0.05327143     0.34900
O1149       O  0.20855509  0.94980834  0.51454551    -0.72300
O1150       O  0.18884086  0.53531407  0.00379612    -0.72500
O1151       O  0.20069502  0.98572428  0.96483982    -0.72400
O1152       O  0.20322248  0.50025270  0.55125616    -0.72400
O1153       O  0.13613116  0.50394683  0.53994933    -0.72300
O1154       O  0.13003927  0.00175927  0.95579959    -0.72400
O1155       O  0.12022322  0.54522205  0.99762477    -0.72300
O1156       O  0.13962893  0.95934149  0.49917508    -0.72500
V1157       V  0.19969780  0.99257400  0.50793100     1.35200
V1158       V  0.12885361  0.50141130  0.99780877     1.35200
C1159       C  0.11526690  0.93987879  0.50864541     0.76900
C1160       C  0.21343706  0.55538449  0.00049047     0.77000
C1161       C  0.22755697  0.99166459  0.94490366     0.76900
C1162       C  0.10808126  0.50403067  0.55936532     0.76800
C1163       C  0.18198558  0.68406080  0.97748077     0.79700
N1164       N  0.17801819  0.70630910  0.99947208    -0.78600
C1165       C  0.17240530  0.73651791  0.99179644     0.82200
N1166       N  0.17111681  0.74443478  0.96197862    -0.77500
C1167       C  0.17554970  0.72232923  0.93988070     0.82200
N1168       N  0.18105005  0.69243424  0.94794395    -0.80300
C1169       C  0.15475179  0.81306224  0.53040285     0.79700
N1170       N  0.16021243  0.79098090  0.50831810    -0.78600
C1171       C  0.16846174  0.76132626  0.51569587     0.82200
N1172       N  0.17134668  0.75389421  0.54531784    -0.78500
C1173       C  0.16610609  0.77601676  0.56739455     0.82200
N1174       N  0.15781237  0.80541481  0.55975765    -0.80300
O1175       O  0.27392819  0.75417245  0.80018827    -0.72300
O1176       O  0.27145367  0.75800859  0.71433844    -0.72500
O1177       O  0.26210806  0.71250577  0.75707714    -0.72400
O1178       O  0.28342693  0.79936096  0.75702194    -0.72400
O1179       O  0.21390943  0.78943505  0.75284573    -0.72300
O1180       O  0.19318698  0.70386795  0.74315282    -0.72400
O1181       O  0.20345822  0.75340341  0.70550074    -0.72300
O1182       O  0.20352658  0.73966832  0.79059219    -0.72500
V1183       V  0.27364379  0.75579833  0.75701636     1.35200
V1184       V  0.20254885  0.74681272  0.74825174     1.35200
C1185       C  0.17648997  0.74533898  0.81011491     0.76900
C1186       C  0.17458313  0.75754547  0.69554961     0.77000
C1187       C  0.16163700  0.69387926  0.74907735     0.76900
C1188       C  0.18952201  0.80943593  0.75563375     0.76800
C1189       C  0.25091908  0.56551757  0.72459620     0.79700
N1190       N  0.24580834  0.54308801  0.74684717    -0.78600
C1191       C  0.23954832  0.51304623  0.73953099     0.82200
N1192       N  0.23824129  0.50552316  0.70977074    -0.78500
C1193       C  0.24288808  0.52794526  0.68745469     0.82200
N1194       N  0.24940569  0.55776862  0.69504278    -0.80300
C1195       C  0.21699751  0.93901444  0.77747324     0.79700
N1196       N  0.21997832  0.96187597  0.75557807    -0.78600
C1197       C  0.22465401  0.99213598  0.76333011     0.82200
N1198       N  0.22620423  0.99942207  0.79313930    -0.78500
C1199       C  0.22269146  0.97667859  0.81511964     0.82200
N1200       N  0.21791022  0.94678771  0.80703524    -0.80300
C1201       C  0.21883001  0.85060335  0.78112243    -0.26800
C1202       C  0.19782275  0.84265374  0.75901505    -0.14900
C1203       C  0.18505305  0.86629314  0.74118546     0.35700
C1204       C  0.19285611  0.89771142  0.74661742    -0.26300
C1205       C  0.21261451  0.90577460  0.76980495    -0.15500
C1206       C  0.22631244  0.88180686  0.78684358     0.36800
N1207       N  0.12069023  0.88577870  0.81558581    -0.89800
H1208       H  0.10011602  0.82962667  0.79940443     0.17900
H1209       H  0.18246132  0.91597345  0.73344619     0.17900
N1210       N  0.29573451  0.85806923  0.71654060    -0.88800
H1211       H  0.12628165  0.86524426  0.82683361     0.35300
H1212       H  0.14513169  0.89547785  0.80592238     0.40400
H1213       H  0.27066067  0.84928664  0.72568293     0.40000
H1214       H  0.29142696  0.87838004  0.70437700     0.34900
C1215       C  0.15571781  0.61586492  0.71139669    -0.26800
C1216       C  0.25958502  0.59797439  0.73183788    -0.14900
C1217       C  0.24173267  0.61364562  0.75769400     0.35700
C1218       C  0.25100545  0.64480128  0.76275143    -0.26300
C1219       C  0.15300772  0.66090426  0.74437117    -0.15500
C1220       C  0.16815920  0.64558425  0.71738338     0.36800
N1221       N  0.19474416  0.66084081  0.69532264    -0.89800
H1222       H  0.16641075  0.60491521  0.69012382     0.17900
H1223       H  0.23709216  0.65706406  0.78231674     0.17900
N1224       N  0.21392036  0.59817076  0.77828615    -0.88800
H1225       H  0.20130589  0.64712633  0.67579579     0.35300
H1226       H  0.21786866  0.66256266  0.70518638     0.40400
H1227       H  0.19333819  0.59320497  0.76591843     0.40000
H1228       H  0.20339077  0.61304557  0.79601723     0.34900
C1229       C  0.27780634  0.74076448  0.64824320    -0.26800
C1230       C  0.17396959  0.76181355  0.66255427    -0.14900
C1231       C  0.19197888  0.78695250  0.64566246     0.35700
C1232       C  0.18966895  0.79020258  0.61444367    -0.26300
C1233       C  0.17005762  0.76911781  0.59953149    -0.15500
C1234       C  0.27528888  0.74373112  0.61700012     0.36800
N1235       N  0.25329900  0.72210866  0.60387057    -0.89800
H1236       H  0.26311836  0.72225037  0.66168104     0.17900
H1237       H  0.20308344  0.80972037  0.60175844     0.17900
N1238       N  0.21197759  0.81008297  0.65930604    -0.88800
H1239       H  0.23430869  0.73460461  0.59417732     0.35300
H1240       H  0.26918274  0.71007241  0.58639348     0.40400
H1241       H  0.19987980  0.83162417  0.65710127     0.40000
H1242       H  0.09030620  0.80474787  0.68121686     0.34900
C1243       C  0.15731851  0.75974597  0.86490149    -0.26800
C1244       C  0.17705946  0.74021550  0.84326741    -0.14900
C1245       C  0.19618575  0.71521824  0.85360348     0.35700
C1246       C  0.19552772  0.71059006  0.88514802    -0.26300
C1247       C  0.17596035  0.73001963  0.90692902    -0.15500
C1248       C  0.15655150  0.75494700  0.89670412     0.36800
N1249       N  0.26138182  0.77598243  0.91777138    -0.89800
H1250       H  0.26786855  0.77879522  0.85622773     0.17900
H1251       H  0.21055097  0.69144906  0.89273998     0.17900
N1252       N  0.21467114  0.69350012  0.83223785    -0.88800
H1253       H  0.24946096  0.79334164  0.90613280     0.35300
H1254       H  0.24072132  0.76289311  0.93028052     0.40400
H1255       H  0.23748631  0.70466522  0.82095760     0.40000
H1256       H  0.09907696  0.67433649  0.84485526     0.34900
C1257       C  0.12448631  0.49623165  0.64217554    -0.26800
C1258       C  0.23934799  0.52050294  0.65530374    -0.14900
C1259       C  0.21966225  0.54002921  0.63837104     0.35700
C1260       C  0.21707465  0.53300223  0.60784538    -0.26300
C1261       C  0.23421929  0.50711933  0.59357540    -0.15500
C1262       C  0.12471016  0.98628672  0.61078608     0.36800
N1263       N  0.14098013  0.95818358  0.59799149    -0.89800
H1264       H  0.14205686  0.97770738  0.65434043     0.17900
H1265       H  0.20212462  0.54819853  0.59485480     0.17900
N1266       N  0.20162826  0.56659607  0.65255134    -0.88800
H1267       H  0.16840875  0.96046464  0.59722889     0.35300
H1268       H  0.13648920  0.95470021  0.57551233     0.40400
H1269       H  0.18268034  0.55786796  0.67030207     0.40000
H1270       H  0.18774421  0.57827010  0.63724681     0.34900
C1271       C  0.12149337  0.00884899  0.89192025    -0.26800
C1272       C  0.22579017  0.98860484  0.91158744    -0.14900
C1273       C  0.20059763  0.96866117  0.90125687     0.35700
C1274       C  0.19932379  0.96658414  0.86974518    -0.26300
C1275       C  0.22295484  0.98348610  0.84796417    -0.15500
C1276       C  0.12123317  0.00593641  0.86010154     0.36800
N1277       N  0.14384818  0.02550699  0.83858668    -0.89800
H1278       H  0.13836365  0.02632698  0.90000172     0.17900
H1279       H  0.18011221  0.95100562  0.86202951     0.17900
N1280       N  0.17735437  0.94948759  0.92264366    -0.88800
H1281       H  0.15983065  0.03968048  0.85002927     0.35300
H1282       H  0.12748727  0.04056098  0.82843199     0.40400
H1283       H  0.19335430  0.93326919  0.93171099     0.40000
H1284       H  0.15987141  0.93671192  0.91142348     0.34900
C1285       C  0.24053231  0.85880648  0.54397886    -0.26800
C1286       C  0.14405493  0.84496343  0.52335010    -0.14900
C1287       C  0.16050731  0.86164058  0.49718128     0.35700
C1288       C  0.15023312  0.89252677  0.49262823    -0.26300
C1289       C  0.12351603  0.90678230  0.51329816    -0.15500
C1290       C  0.23031710  0.88960410  0.53913395     0.36800
N1291       N  0.20348158  0.90402816  0.56101480    -0.89800
H1292       H  0.22742274  0.84596666  0.56385210     0.17900
H1293       H  0.16323665  0.90561568  0.47297108     0.17900
N1294       N  0.18800981  0.84749243  0.47576314    -0.88800
H1295       H  0.19523594  0.88901476  0.57964670     0.35300
H1296       H  0.18120833  0.90744607  0.55032653     0.40400
H1297       H  0.20931419  0.84280993  0.48735999     0.40000
H1298       H  0.07332285  0.86264014  0.45911235     0.34900
C1299       C  0.18470210  0.59579030  0.97336279    -0.26800
C1300       C  0.20517878  0.58841999  0.99611034    -0.14900
C1301       C  0.08808425  0.61079492  0.01423627     0.35700
C1302       C  0.07785443  0.64177497  0.00941122    -0.26300
C1303       C  0.18798419  0.65094878  0.98496474    -0.15500
C1304       C  0.17602383  0.62669439  0.96746586     0.36800
N1305       N  0.15525090  0.63344011  0.94363550    -0.89800
H1306       H  0.17586035  0.57725259  0.95975185     0.17900
H1307       H  0.08445275  0.65989646  0.02455149     0.17900
N1308       N  0.11241332  0.60450132  0.53902030    -0.88800
H1309       H  0.14854624  0.61296467  0.93313841     0.35300
H1310       H  0.13140686  0.64326930  0.95396638     0.40400
H1311       H  0.13762288  0.59630261  0.53009611     0.40000
H1312       H  0.11636300  0.62436318  0.55166011     0.34900
O1313       O  0.33346248  0.44934258  0.01219359    -0.72300
O1314       O  0.31355660  0.03508453  0.50351883    -0.72500
O1315       O  0.32650202  0.48533704  0.46393870    -0.72400
O1316       O  0.32733634  0.99904988  0.05145389    -0.72400
O1317       O  0.25976366  0.00319153  0.04006753    -0.72300
O1318       O  0.25618100  0.50270412  0.45576658    -0.72400
O1319       O  0.24455585  0.04625358  0.49770124    -0.72300
O1320       O  0.26402621  0.45899619  0.99867870    -0.72500
V1321       V  0.32495673  0.49225866  0.00586531     1.35200
V1322       V  0.25371332  0.00256829  0.49845582     1.35200
C1323       C  0.23945912  0.43965598  0.00802824     0.76900
C1324       C  0.33787639  0.05541729  0.50000210     0.77000
C1325       C  0.35331336  0.49154238  0.44401415     0.76900
C1326       C  0.23160742  0.00235570  0.05938874     0.76800
C1327       C  0.30524427  0.18381024  0.47647138     0.79700
N1328       N  0.30197540  0.20634079  0.49818282    -0.78600
C1329       C  0.29631031  0.23648554  0.49030842     0.82200
N1330       N  0.29425811  0.24405218  0.46052500    -0.77500
C1331       C  0.29800003  0.22166774  0.43866368     0.82200
N1332       N  0.30356770  0.19184531  0.44696375    -0.80300
C1333       C  0.27905566  0.31232489  0.02824747     0.79700
N1334       N  0.28466489  0.29010999  0.00626354    -0.78600
C1335       C  0.29368839  0.26065366  0.01370871     0.82200
N1336       N  0.29717242  0.25357010  0.04326036    -0.78500
C1337       C  0.29185705  0.27579171  0.06521786     0.82200
N1338       N  0.28278381  0.30499045  0.05756286    -0.80300
O1339       O  0.39566390  0.25351035  0.29892840    -0.72300
O1340       O  0.39484612  0.25863882  0.21281125    -0.72500
O1341       O  0.38483892  0.21250316  0.25499212    -0.72400
O1342       O  0.40593934  0.29942171  0.25628766    -0.72400
O1343       O  0.33702028  0.28834301  0.25233779    -0.72300
O1344       O  0.31515494  0.20317772  0.24141852    -0.72400
O1345       O  0.32706036  0.25308109  0.20427032    -0.72300
O1346       O  0.32523732  0.23821592  0.28940925    -0.72500
V1347       V  0.39626148  0.25581780  0.25561485     1.35200
V1348       V  0.32513915  0.24594249  0.24705812     1.35200
C1349       C  0.29810337  0.24414025  0.30871952     0.76900
C1350       C  0.29859072  0.25776005  0.19383365     0.77000
C1351       C  0.28342619  0.19354368  0.24705129     0.76900
C1352       C  0.31297751  0.30866204  0.25496463     0.76800
C1353       C  0.37583800  0.06475332  0.22451375     0.79700
N1354       N  0.37074554  0.04247079  0.24690329    -0.78600
C1355       C  0.36452203  0.01238263  0.23974092     0.82200
N1356       N  0.36317682  0.00467180  0.21004683    -0.78500
C1357       C  0.36777944  0.02693913  0.18760951     0.82200
N1358       N  0.37427946  0.05683400  0.19500060    -0.80300
C1359       C  0.34318926  0.43785193  0.27666472     0.79700
N1360       N  0.34649077  0.46050641  0.25454192    -0.78600
C1361       C  0.35144030  0.49081873  0.26197322     0.82200
N1362       N  0.35286531  0.49837976  0.29178188    -0.78500
C1363       C  0.34904186  0.47583077  0.31402412     0.82200
N1364       N  0.34406186  0.44590344  0.30614848    -0.80300
C1365       C  0.34185755  0.34933202  0.28155433    -0.26800
C1366       C  0.32171358  0.34172852  0.25871388    -0.14900
C1367       C  0.31034148  0.36555233  0.24029372     0.35700
C1368       C  0.31894731  0.39680584  0.24560968    -0.26300
C1369       C  0.33798092  0.40459629  0.26936825    -0.15500
C1370       C  0.35002226  0.38041383  0.28724688     0.36800
N1371       N  0.24482702  0.38583037  0.31570146    -0.89800
H1372       H  0.22309036  0.32994428  0.29982929     0.17900
H1373       H  0.30970277  0.41519316  0.23186004     0.17900
N1374       N  0.41926358  0.35855276  0.21560021    -0.88800
H1375       H  0.25004172  0.36523612  0.32703100     0.35300
H1376       H  0.26943558  0.39505302  0.30579862     0.40400
H1377       H  0.39398193  0.35004382  0.22449265     0.40000
H1378       H  0.41546385  0.37892939  0.20334217     0.34900
C1379       C  0.27808818  0.11437813  0.21116722    -0.26800
C1380       C  0.38422547  0.09729414  0.23160559    -0.14900
C1381       C  0.36498829  0.11350224  0.25644925     0.35700
C1382       C  0.37375967  0.14486312  0.26115601    -0.26300
C1383       C  0.27438352  0.16052627  0.24274016    -0.15500
C1384       C  0.29052998  0.14424167  0.21666984     0.36800
N1385       N  0.31826243  0.15857934  0.19501701    -0.89800
H1386       H  0.28963264  0.10263754  0.19058947     0.17900
H1387       H  0.35882697  0.15751035  0.27996316     0.17900
N1388       N  0.33625850  0.09836614  0.27630042    -0.88800
H1389       H  0.32555783  0.14416290  0.17611209     0.35300
H1390       H  0.34072994  0.16046399  0.20575423     0.40400
H1391       H  0.31666518  0.09286112  0.26304402     0.40000
H1392       H  0.32464959  0.11366087  0.29324444     0.34900
C1393       C  0.40261255  0.24141943  0.14638264    -0.26800
C1394       C  0.29877055  0.26192567  0.16063941    -0.14900
C1395       C  0.31849301  0.28605126  0.14340492     0.35700
C1396       C  0.31645487  0.28926935  0.11208154    -0.26300
C1397       C  0.29579403  0.26891690  0.09736802    -0.15500
C1398       C  0.40100176  0.24439338  0.11497003     0.36800
N1399       N  0.37955262  0.22270292  0.10133334    -0.89800
H1400       H  0.38772967  0.22282142  0.15952373     0.17900
H1401       H  0.33096312  0.30811744  0.09914380     0.17900
N1402       N  0.34003564  0.30816538  0.15675430    -0.88800
H1403       H  0.36092203  0.23512558  0.09111706     0.35300
H1404       H  0.39592131  0.21059770  0.08422268     0.40400
H1405       H  0.32952457  0.33031855  0.15417276     0.40000
H1406       H  0.21385323  0.30593338  0.18064413     0.34900
C1407       C  0.27925068  0.25879062  0.36356949    -0.26800
C1408       C  0.29834291  0.23885390  0.34194012    -0.14900
C1409       C  0.31709633  0.21362189  0.35231673     0.35700
C1410       C  0.31657163  0.20906576  0.38386871    -0.26300
C1411       C  0.29780388  0.22899035  0.40565588    -0.15500
C1412       C  0.27888125  0.25423387  0.39538250     0.36800
N1413       N  0.38172510  0.27381996  0.41729069    -0.89800
H1414       H  0.38781180  0.27695766  0.35573545     0.17900
H1415       H  0.33130561  0.18972364  0.39144305     0.17900
N1416       N  0.33538360  0.19179154  0.33095835    -0.88800
H1417       H  0.36878076  0.29063794  0.40584224     0.35300
H1418       H  0.36186968  0.26017429  0.43015951     0.40400
H1419       H  0.35838456  0.20279278  0.31978125     0.40000
H1420       H  0.21982329  0.17353539  0.34449858     0.34900
C1421       C  0.24729985  0.99462647  0.14251368    -0.26800
C1422       C  0.36383998  0.01926901  0.15561739    -0.14900
C1423       C  0.34284310  0.03803065  0.13919707     0.35700
C1424       C  0.34005873  0.03097803  0.10869918    -0.26300
C1425       C  0.35811142  0.00569254  0.09403484    -0.15500
C1426       C  0.25038245  0.48605753  0.11071218     0.36800
N1427       N  0.26633627  0.45783218  0.09790857    -0.89800
H1428       H  0.26859566  0.47775927  0.15394246     0.17900
H1429       H  0.32427819  0.04572651  0.09603209     0.17900
N1430       N  0.32374363  0.06384374  0.15387745    -0.88800
H1431       H  0.29384092  0.46010326  0.09659395     0.35300
H1432       H  0.26120432  0.45410037  0.07565081     0.40400
H1433       H  0.30555524  0.05444378  0.17185862     0.40000
H1434       H  0.30891786  0.07496584  0.13893738     0.34900
C1435       C  0.24956821  0.50847289  0.39152233    -0.26800
C1436       C  0.35175843  0.48822049  0.41068071    -0.14900
C1437       C  0.32783170  0.46706989  0.40031535     0.35700
C1438       C  0.32660684  0.46482119  0.36879458    -0.26300
C1439       C  0.34909077  0.48277534  0.34697497    -0.15500
C1440       C  0.24956690  0.50530346  0.35968691     0.36800
N1441       N  0.27392851  0.52330566  0.33805481    -0.89800
H1442       H  0.26748564  0.52510504  0.39950773     0.17900
H1443       H  0.30829683  0.44832987  0.36112079     0.17900
N1444       N  0.30584621  0.44693199  0.42169283    -0.88800
H1445       H  0.29075220  0.53663300  0.34946117     0.35300
H1446       H  0.25901014  0.53918328  0.32734241     0.40400
H1447       H  0.32287001  0.43153005  0.43062014     0.40000
H1448       H  0.28909790  0.43331273  0.41048055     0.34900
C1449       C  0.36611333  0.35824255  0.04119082    -0.26800
C1450       C  0.26770879  0.34409437  0.02113243    -0.14900
C1451       C  0.28429242  0.36117384  0.99526149     0.35700
C1452       C  0.27407550  0.39220187  0.99111039    -0.26300
C1453       C  0.24731086  0.40626220  0.01194789    -0.15500
C1454       C  0.35529027  0.38881654  0.03616841     0.36800
N1455       N  0.32815371  0.40299743  0.05794531    -0.89800
H1456       H  0.35326568  0.34537233  0.06114934     0.17900
H1457       H  0.28732499  0.40562094  0.97173307     0.17900
N1458       N  0.31202052  0.34733830  0.97383317    -0.88800
H1459       H  0.31996066  0.38791055  0.07652757     0.35300
H1460       H  0.30593821  0.40620578  0.04713533     0.40400
H1461       H  0.33320188  0.34251357  0.98554092     0.40000
H1462       H  0.19291374  0.36027066  0.95500275     0.34900
C1463       C  0.30817836  0.09545643  0.47307859    -0.26800
C1464       C  0.32913938  0.08836799  0.49555985    -0.14900
C1465       C  0.21181842  0.11164735  0.51416023     0.35700
C1466       C  0.20089932  0.14239386  0.50927682    -0.26300
C1467       C  0.31136447  0.15075635  0.48421616    -0.15500
C1468       C  0.29911382  0.12627472  0.46715902     0.36800
N1469       N  0.27765738  0.13270528  0.44374863    -0.89800
H1470       H  0.29925624  0.07677290  0.45969040     0.17900
H1471       H  0.20751762  0.16078211  0.52412059     0.17900
N1472       N  0.23647037  0.10355498  0.03864001    -0.88800
H1473       H  0.27066758  0.11209067  0.43365026     0.35300
H1474       H  0.25399575  0.14260638  0.45438827     0.40400
H1475       H  0.26153230  0.09521837  0.02946250     0.40000
H1476       H  0.24077627  0.12350840  0.05102246     0.34900
O1477       O  0.33598022  0.44999968  0.51290573    -0.72300
O1478       O  0.31691368  0.03533618  0.00348582    -0.72500
O1479       O  0.32393884  0.48511560  0.96355102    -0.72400
O1480       O  0.32485377  0.99916615  0.55156304    -0.72400
O1481       O  0.25641337  0.00480193  0.54106456    -0.72300
O1482       O  0.25258691  0.50186824  0.95609238    -0.72400
O1483       O  0.24836740  0.04533299  0.99692692    -0.72300
O1484       O  0.26709334  0.45969809  0.49842372    -0.72500
V1485       V  0.32797631  0.49289384  0.50614277     1.35200
V1486       V  0.25671770  0.00152408  0.99740447     1.35200
C1487       C  0.24229865  0.44057299  0.50778632     0.76900
C1488       C  0.34153863  0.05539250  0.00040313     0.77000
C1489       C  0.35079599  0.49182997  0.94385375     0.76900
C1490       C  0.22812505  0.00420482  0.56018815     0.76800
C1491       C  0.30997073  0.18401214  0.97602384     0.79700
N1492       N  0.30550757  0.20643108  0.99786605    -0.78600
C1493       C  0.29910116  0.23645369  0.99001568     0.82200
N1494       N  0.29741779  0.24398279  0.96016983    -0.77500
C1495       C  0.30230836  0.22176155  0.93817453     0.82200
N1496       N  0.30869602  0.19207683  0.94642468    -0.80300
C1497       C  0.27948747  0.31275927  0.52835735     0.79700
N1498       N  0.28415974  0.29046687  0.50643481    -0.78600
C1499       C  0.29212219  0.26075685  0.51392773     0.82200
N1500       N  0.29552471  0.25349048  0.54347559    -0.78500
C1501       C  0.29112667  0.27581481  0.56537267     0.82200
N1502       N  0.28307495  0.30526290  0.55765111    -0.80300
O1503       O  0.39987752  0.25326953  0.79927532    -0.72300
O1504       O  0.39683128  0.25861585  0.71349535    -0.72500
O1505       O  0.38769286  0.21245604  0.75558281    -0.72400
O1506       O  0.40911886  0.29927622  0.75682558    -0.72400
O1507       O  0.34012777  0.28927525  0.75127998    -0.72300
O1508       O  0.31832548  0.20405226  0.74077395    -0.72400
O1509       O  0.32920056  0.25394048  0.70355744    -0.72300
O1510       O  0.32923432  0.23914217  0.78857902    -0.72500
V1511       V  0.39931632  0.25570756  0.75614047     1.35200
V1512       V  0.32828582  0.24684035  0.74626561     1.35200
C1513       C  0.30244939  0.24525854  0.80822133     0.76900
C1514       C  0.30032638  0.25818143  0.69361070     0.77000
C1515       C  0.28666436  0.19438830  0.74710778     0.76900
C1516       C  0.31600512  0.30951304  0.75387223     0.76800
C1517       C  0.37634789  0.06517086  0.72408210     0.79700
N1518       N  0.37155215  0.04283423  0.74643420    -0.78600
C1519       C  0.36496981  0.01280367  0.73934522     0.82200
N1520       N  0.36292888  0.00521245  0.70971430    -0.78500
C1521       C  0.36724505  0.02753736  0.68728781     0.82200
N1522       N  0.37420020  0.05735768  0.69463402    -0.80300
C1523       C  0.34389421  0.43871011  0.77597612     0.79700
N1524       N  0.34712450  0.46150488  0.75404874    -0.78600
C1525       C  0.35137557  0.49178565  0.76182853     0.82200
N1526       N  0.35217031  0.49919526  0.79173610    -0.78500
C1527       C  0.34842851  0.47648167  0.81376494     0.82200
N1528       N  0.34414577  0.44654373  0.80560350    -0.80300
C1529       C  0.34511872  0.35037735  0.77982509    -0.26800
C1530       C  0.32461699  0.34259169  0.75730415    -0.14900
C1531       C  0.31243811  0.36627242  0.73918705     0.35700
C1532       C  0.32040358  0.39760760  0.74466880    -0.26300
C1533       C  0.33959908  0.40553260  0.76826803    -0.15500
C1534       C  0.35264542  0.38152352  0.78567269     0.36800
N1535       N  0.24741079  0.38578092  0.81453396    -0.89800
H1536       H  0.22690174  0.32944205  0.79855370     0.17900
H1537       H  0.31046910  0.41592352  0.73125921     0.17900
N1538       N  0.42255335  0.35786629  0.71533874    -0.88800
H1539       H  0.25329730  0.36528419  0.82569412     0.35300
H1540       H  0.27171028  0.39566245  0.80473242     0.40400
H1541       H  0.39741799  0.34893843  0.72407058     0.40000
H1542       H  0.41840060  0.37812448  0.70303446     0.34900
C1543       C  0.27844208  0.11623741  0.71031371    -0.26800
C1544       C  0.38515637  0.09763455  0.73114831    -0.14900
C1545       C  0.36692330  0.11365919  0.75659054     0.35700
C1546       C  0.37615520  0.14489644  0.76135033    -0.26300
C1547       C  0.27737755  0.16151267  0.74278745    -0.15500
C1548       C  0.29156279  0.14586826  0.71573312     0.36800
N1549       N  0.31782948  0.16070842  0.69307954    -0.89800
H1550       H  0.28827737  0.10506105  0.68895240     0.17900
H1551       H  0.36192554  0.15741229  0.78058062     0.17900
N1552       N  0.33875518  0.09845927  0.77703585    -0.88800
H1553       H  0.32361651  0.14680905  0.67359901     0.35300
H1554       H  0.34134816  0.16222747  0.70240359     0.40400
H1555       H  0.31842634  0.09337175  0.76441965     0.40000
H1556       H  0.32799133  0.11356185  0.79448388     0.34900
C1557       C  0.40296704  0.24083044  0.64725166    -0.26800
C1558       C  0.29965205  0.26224344  0.66053147    -0.14900
C1559       C  0.31913824  0.28625572  0.64295184     0.35700
C1560       C  0.31659622  0.28924990  0.61172896    -0.26300
C1561       C  0.29543446  0.26896801  0.59744961    -0.15500
C1562       C  0.40068874  0.24339763  0.61590765     0.36800
N1563       N  0.37888730  0.22150668  0.60291057    -0.89800
H1564       H  0.38828300  0.22239677  0.66081282     0.17900
H1565       H  0.33106720  0.30793885  0.59852987     0.17900
N1566       N  0.34089958  0.30853027  0.65585764    -0.88800
H1567       H  0.35992011  0.23377293  0.59296582     0.35300
H1568       H  0.39492966  0.20930316  0.58566093     0.40400
H1569       H  0.33038079  0.33065133  0.65311143     0.40000
H1570       H  0.21483106  0.30424802  0.67974477     0.34900
C1571       C  0.28364414  0.25937078  0.86322441    -0.26800
C1572       C  0.30298646  0.23977342  0.84141994    -0.14900
C1573       C  0.32165836  0.21439378  0.85164709     0.35700
C1574       C  0.32100553  0.20950856  0.88320210    -0.26300
C1575       C  0.30209047  0.22918983  0.90514886    -0.15500
C1576       C  0.28302702  0.25442878  0.89501269     0.36800
N1577       N  0.38653648  0.27317191  0.91696650    -0.89800
H1578       H  0.39216943  0.27607067  0.85553625     0.17900
H1579       H  0.33571553  0.19008690  0.89064705     0.17900
N1580       N  0.33986334  0.19267132  0.83014322    -0.88800
H1581       H  0.37312081  0.28967850  0.90555773     0.35300
H1582       H  0.36705760  0.25911086  0.92979851     0.40400
H1583       H  0.36284085  0.20369335  0.81898480     0.40000
H1584       H  0.23037503  0.17622574  0.84395581     0.34900
C1585       C  0.23901676  0.99516151  0.64406650    -0.26800
C1586       C  0.36273538  0.02000592  0.65533332    -0.14900
C1587       C  0.34242413  0.03944283  0.63886460     0.35700
C1588       C  0.33912500  0.03244959  0.60843581    -0.26300
C1589       C  0.35597267  0.00656203  0.59388368    -0.15500
C1590       C  0.25358039  0.48703919  0.61052490     0.36800
N1591       N  0.27030395  0.45909752  0.59778812    -0.89800
H1592       H  0.27055300  0.47865006  0.65425925     0.17900
H1593       H  0.32388461  0.04767966  0.59573878     0.17900
N1594       N  0.32448943  0.06588074  0.65342745    -0.88800
H1595       H  0.29768480  0.46166845  0.59715960     0.35300
H1596       H  0.26597816  0.45551931  0.57527872     0.40400
H1597       H  0.30586069  0.05706914  0.67141307     0.40000
H1598       H  0.31021564  0.07755586  0.63841322     0.34900
C1599       C  0.24558776  0.50834026  0.89199222    -0.26800
C1600       C  0.34965303  0.48868697  0.91048746    -0.14900
C1601       C  0.32617155  0.46732482  0.89982928     0.35700
C1602       C  0.32535562  0.46516709  0.86826059    -0.26300
C1603       C  0.34795723  0.48330450  0.84672521    -0.15500
C1604       C  0.24579936  0.50540899  0.86010970     0.36800
N1605       N  0.26941378  0.52435631  0.83875990    -0.89800
H1606       H  0.26295305  0.52531112  0.90020800     0.17900
H1607       H  0.30735094  0.44856760  0.86032054     0.17900
N1608       N  0.30421798  0.44691486  0.92096581    -0.88800
H1609       H  0.28562142  0.53811697  0.85037856     0.35300
H1610       H  0.25381695  0.53983529  0.82827023     0.40400
H1611       H  0.32125060  0.43171721  0.93015621     0.40000
H1612       H  0.28791345  0.43308368  0.90950811     0.34900
C1613       C  0.36689659  0.35880842  0.54275155    -0.26800
C1614       C  0.26897265  0.34473556  0.52126478    -0.14900
C1615       C  0.28595749  0.36158135  0.49540486     0.35700
C1616       C  0.27635614  0.39275375  0.49120204    -0.26300
C1617       C  0.24969933  0.40712452  0.51188049    -0.15500
C1618       C  0.35700066  0.38963425  0.53768537     0.36800
N1619       N  0.33062211  0.40451605  0.55963460    -0.89800
H1620       H  0.35397156  0.34631384  0.56291361     0.17900
H1621       H  0.28991444  0.40599915  0.47186195     0.17900
N1622       N  0.31338452  0.34732054  0.47400020    -0.88800
H1623       H  0.32246954  0.38977524  0.57850227     0.35300
H1624       H  0.30818168  0.40793885  0.54915559     0.40400
H1625       H  0.33447065  0.34216720  0.48571608     0.40000
H1626       H  0.19688083  0.36036980  0.45812146     0.34900
C1627       C  0.31351860  0.09562559  0.97251887    -0.26800
C1628       C  0.33341451  0.08845637  0.99572090    -0.14900
C1629       C  0.21817893  0.11138299  0.01347442     0.35700
C1630       C  0.20848529  0.14247062  0.00842075    -0.26300
C1631       C  0.31623280  0.15093709  0.98382555    -0.15500
C1632       C  0.30478874  0.12644491  0.96629840     0.36800
N1633       N  0.28436171  0.13283669  0.94214841    -0.89800
H1634       H  0.30504224  0.07695396  0.95886501     0.17900
H1635       H  0.21629961  0.16075459  0.02282996     0.17900
N1636       N  0.22971889  0.10425475  0.53967302    -0.88800
H1637       H  0.27804434  0.11223602  0.93165671     0.35300
H1638       H  0.26029674  0.14250795  0.95217183     0.40400
H1639       H  0.25537489  0.09703055  0.53083006     0.40000
H1640       H  0.23256020  0.12418485  0.55256075     0.34900
O1641       O  0.33599799  0.94972790  0.01449944    -0.72300
O1642       O  0.31775981  0.53537246  0.50006016    -0.72500
O1643       O  0.32337653  0.98583242  0.46650854    -0.72400
O1644       O  0.32425648  0.49927175  0.04845295    -0.72400
O1645       O  0.25695059  0.50334059  0.04161212    -0.72300
O1646       O  0.25311763  0.00100526  0.45528569    -0.72400
O1647       O  0.24894308  0.54709948  0.49895279    -0.72300
O1648       O  0.26674542  0.95809108  0.99775743    -0.72500
V1649       V  0.32753223  0.99274562  0.00872249     1.35200
V1650       V  0.25725113  0.50321491  0.49878321     1.35200
C1651       C  0.24189587  0.93900872  0.00698959     0.76900
C1652       C  0.34248423  0.55530450  0.49704982     0.77000
C1653       C  0.35011902  0.99241597  0.44664648     0.76900
C1654       C  0.22903781  0.50231785  0.06116218     0.76800
C1655       C  0.30928880  0.68438669  0.47717501     0.79700
N1656       N  0.30376528  0.70631103  0.49949713    -0.78600
C1657       C  0.29779801  0.73656369  0.49194132     0.82200
N1658       N  0.29771069  0.74477659  0.46198715    -0.77500
C1659       C  0.30374203  0.72300161  0.43964481     0.82200
N1660       N  0.30957553  0.69317842  0.44760192    -0.80300
C1661       C  0.27785758  0.81164104  0.03050287     0.79700
N1662       N  0.28218004  0.78931420  0.00866866    -0.78600
C1663       C  0.28976442  0.75954938  0.01615221     0.82200
N1664       N  0.29322744  0.75222063  0.04566842    -0.78500
C1665       C  0.28915264  0.77459702  0.06755096     0.82200
N1666       N  0.28144260  0.80414532  0.05979407    -0.80300
O1667       O  0.40137103  0.75377985  0.29929948    -0.72300
O1668       O  0.39929340  0.75736573  0.21327237    -0.72500
O1669       O  0.38943004  0.71211845  0.25637582    -0.72400
O1670       O  0.41102632  0.79873432  0.25587576    -0.72400
O1671       O  0.34185849  0.78744750  0.25280853    -0.72300
O1672       O  0.32047886  0.70243924  0.24178851    -0.72400
O1673       O  0.33089319  0.75241859  0.20482749    -0.72300
O1674       O  0.33127587  0.73741976  0.28980957    -0.72500
V1675       V  0.40122640  0.75525012  0.25607121     1.35200
V1676       V  0.33015622  0.74513240  0.24752725     1.35200
C1677       C  0.30455853  0.74357937  0.30950395     0.76900
C1678       C  0.30190771  0.75667000  0.19504774     0.77000
C1679       C  0.28889640  0.69253457  0.24754367     0.76900
C1680       C  0.31763010  0.80754088  0.25607948     0.76800
C1681       C  0.36732344  0.56782598  0.22288440     0.79700
N1682       N  0.36293832  0.54514590  0.24495882    -0.78600
C1683       C  0.35548933  0.51530550  0.23785030     0.82200
N1684       N  0.35269117  0.50812019  0.20827036    -0.78500
C1685       C  0.35661998  0.53069266  0.18601339     0.82200
N1686       N  0.36405636  0.56038113  0.19354146    -0.80300
C1687       C  0.34791694  0.93593645  0.27925251     0.79700
N1688       N  0.35364635  0.95813241  0.25678993    -0.78600
C1689       C  0.35852948  0.98842136  0.26408660     0.82200
N1690       N  0.35735820  0.99648973  0.29403384    -0.78500
C1691       C  0.35115136  0.97443524  0.31661609     0.82200
N1692       N  0.34635853  0.94438572  0.30894824    -0.80300
C1693       C  0.34545353  0.84762224  0.28399483    -0.26800
C1694       C  0.32623334  0.84040227  0.26040203    -0.14900
C1695       C  0.31582614  0.86435393  0.24167502     0.35700
C1696       C  0.32450078  0.89543962  0.24738757    -0.26300
C1697       C  0.34253890  0.90286322  0.27187999    -0.15500
C1698       C  0.35353898  0.87858059  0.29014951     0.36800
N1699       N  0.24745188  0.88735710  0.31222729    -0.89800
H1700       H  0.22977361  0.83047553  0.29569325     0.17900
H1701       H  0.31608615  0.91399268  0.23335311     0.17900
N1702       N  0.42077112  0.85643545  0.21525891    -0.88800
H1703       H  0.25483592  0.86703804  0.32283836     0.35300
H1704       H  0.27097402  0.89847268  0.30231011     0.40400
H1705       H  0.39628195  0.84665045  0.22464091     0.40000
H1706       H  0.41512798  0.87643016  0.20319699     0.34900
C1707       C  0.28708972  0.61349499  0.21062715    -0.26800
C1708       C  0.37857323  0.59981860  0.22999324    -0.14900
C1709       C  0.36723234  0.61382044  0.25872359     0.35700
C1710       C  0.37959166  0.64393008  0.26425590    -0.26300
C1711       C  0.28034437  0.65963965  0.24225381    -0.15500
C1712       C  0.29703801  0.64419359  0.21580984     0.36800
N1713       N  0.32269463  0.66014810  0.19345885    -0.89800
H1714       H  0.30000809  0.60175340  0.19055631     0.17900
H1715       H  0.37024987  0.65504606  0.28590854     0.17900
N1716       N  0.34256455  0.59786924  0.28182442    -0.88800
H1717       H  0.33032039  0.64614297  0.17429764     0.35300
H1718       H  0.34557149  0.66362054  0.20329508     0.40400
H1719       H  0.31868415  0.59527213  0.27322193     0.40000
H1720       H  0.33695941  0.61140059  0.30157634     0.34900
C1721       C  0.40543483  0.74164072  0.14698835    -0.26800
C1722       C  0.30078121  0.76065598  0.16205159    -0.14900
C1723       C  0.31877328  0.78542281  0.14451510     0.35700
C1724       C  0.31501498  0.78872728  0.11356342    -0.26300
C1725       C  0.29428872  0.76784483  0.09946690    -0.15500
C1726       C  0.40365006  0.74484777  0.11563051     0.36800
N1727       N  0.38052447  0.72443262  0.10231865    -0.89800
H1728       H  0.38948466  0.72376065  0.16031016     0.17900
H1729       H  0.32832162  0.80803043  0.10039384     0.17900
N1730       N  0.34023271  0.80808799  0.15721983    -0.88800
H1731       H  0.36261772  0.73791897  0.09227068     0.35300
H1732       H  0.39581687  0.71160960  0.08509740     0.40400
H1733       H  0.32856250  0.82989335  0.15546124     0.40000
H1734       H  0.21768008  0.80310581  0.18061240     0.34900
C1735       C  0.28596998  0.75931505  0.36400380    -0.26800
C1736       C  0.30562475  0.73934923  0.34272160    -0.14900
C1737       C  0.32525579  0.71496744  0.35351257     0.35700
C1738       C  0.32487681  0.71117723  0.38511867    -0.26300
C1739       C  0.30491404  0.73071009  0.40657925    -0.15500
C1740       C  0.28534363  0.75526519  0.39589110     0.36800
N1741       N  0.38870626  0.77606467  0.41691415    -0.89800
H1742       H  0.39497080  0.77836819  0.35535579     0.17900
H1743       H  0.34018564  0.69240626  0.39303087     0.17900
N1744       N  0.34382741  0.69289499  0.33260743    -0.88800
H1745       H  0.37643377  0.79311696  0.40518283     0.35300
H1746       H  0.36830814  0.76293376  0.42973572     0.40400
H1747       H  0.36631826  0.70407813  0.32077313     0.40000
H1748       H  0.22731731  0.67459339  0.34456632     0.34900
C1749       C  0.25348848  0.49311580  0.14127825    -0.26800
C1750       C  0.35463764  0.52286854  0.15349922    -0.14900
C1751       C  0.34061815  0.54399973  0.13382060     0.35700
C1752       C  0.33972652  0.53621318  0.10321204    -0.26300
C1753       C  0.35370097  0.50811678  0.09120599    -0.15500
C1754       C  0.24840196  0.98734278  0.11128051     0.36800
N1755       N  0.26515704  0.95880828  0.10017621    -0.89800
H1756       H  0.25963173  0.97894110  0.15706832     0.17900
H1757       H  0.32864736  0.55264739  0.08848007     0.17900
N1758       N  0.32692023  0.57343529  0.14471122    -0.88800
H1759       H  0.29213315  0.96066933  0.10187446     0.35300
H1760       H  0.26353258  0.95530314  0.07703371     0.40400
H1761       H  0.30050894  0.57474491  0.14107239     0.40000
H1762       H  0.34133339  0.59096676  0.13147209     0.34900
C1763       C  0.24645743  0.00670825  0.39082316    -0.26800
C1764       C  0.34895134  0.98903738  0.41336225    -0.14900
C1765       C  0.32613889  0.96710840  0.40267177     0.35700
C1766       C  0.32622069  0.96420436  0.37102862    -0.26300
C1767       C  0.34909065  0.98219383  0.34953893    -0.15500
C1768       C  0.24572030  0.00420664  0.35899553     0.36800
N1769       N  0.26966816  0.02252837  0.33732514    -0.89800
H1770       H  0.26469078  0.02305212  0.39879648     0.17900
H1771       H  0.30889217  0.94704286  0.36303574     0.17900
N1772       N  0.30423530  0.94672814  0.42385168    -0.88800
H1773       H  0.28666329  0.03573328  0.34866744     0.35300
H1774       H  0.25444471  0.03850355  0.32704391     0.40400
H1775       H  0.32139567  0.93197330  0.43342025     0.40000
H1776       H  0.28842026  0.93244510  0.41235175     0.34900
C1777       C  0.36940541  0.85870749  0.04326530    -0.26800
C1778       C  0.26819780  0.84372599  0.02307423    -0.14900
C1779       C  0.28530436  0.85982200  0.99675912     0.35700
C1780       C  0.27578012  0.89081976  0.99160331    -0.26300
C1781       C  0.24931956  0.90578113  0.01196831    -0.15500
C1782       C  0.35828644  0.88920771  0.03831124     0.36800
N1783       N  0.33116978  0.90325536  0.06021019    -0.89800
H1784       H  0.35693066  0.84577658  0.06334901     0.17900
H1785       H  0.28920118  0.90343964  0.97176332     0.17900
N1786       N  0.31278833  0.84498099  0.97587125    -0.88800
H1787       H  0.32332916  0.88819006  0.07888054     0.35300
H1788       H  0.30878326  0.90616728  0.04953671     0.40400
H1789       H  0.33383502  0.84034246  0.98781382     0.40000
H1790       H  0.19710749  0.86166821  0.95716772     0.34900
C1791       C  0.31506573  0.59640234  0.46978641    -0.26800
C1792       C  0.33433844  0.58846690  0.49318060    -0.14900
C1793       C  0.21955137  0.61348015  0.51408992     0.35700
C1794       C  0.20989385  0.64449862  0.50869196    -0.26300
C1795       C  0.31551062  0.65108967  0.48409066    -0.15500
C1796       C  0.30553037  0.62730419  0.46493717     0.36800
N1797       N  0.28576104  0.63451738  0.44052382    -0.89800
H1798       H  0.30755284  0.57826249  0.45503566     0.17900
H1799       H  0.21819162  0.66300472  0.52260423     0.17900
N1800       N  0.23604939  0.60480523  0.03861076    -0.88800
H1801       H  0.28075769  0.61441493  0.42862675     0.35300
H1802       H  0.26105726  0.64301022  0.45050937     0.40400
H1803       H  0.26053336  0.59577687  0.02879332     0.40000
H1804       H  0.24162288  0.62500399  0.05011072     0.34900
O1805       O  0.33412836  0.94984443  0.51463650    -0.72300
O1806       O  0.31429677  0.53467449  0.00007512    -0.72500
O1807       O  0.32610566  0.98607737  0.96631375    -0.72400
O1808       O  0.32771660  0.50027632  0.54858299    -0.72400
O1809       O  0.26054910  0.50406847  0.54124805    -0.72300
O1810       O  0.25574861  0.00029542  0.95425401    -0.72400
O1811       O  0.24498170  0.54613838  0.99933652    -0.72300
O1812       O  0.26441293  0.95920800  0.49919674    -0.72500
V1813       V  0.32493731  0.99269257  0.50883820     1.35200
V1814       V  0.25368672  0.50239157  0.99912292     1.35200
C1815       C  0.23990486  0.93984464  0.50868268     0.76900
C1816       C  0.33879870  0.55480813  0.99737754     0.77000
C1817       C  0.35296411  0.99259080  0.94652663     0.76900
C1818       C  0.23261020  0.50314275  0.56074308     0.76800
C1819       C  0.30443831  0.68339941  0.97725262     0.79700
N1820       N  0.29989787  0.70530054  0.99961168    -0.78600
C1821       C  0.29455888  0.73566497  0.99220686     0.82200
N1822       N  0.29417200  0.74406802  0.96234341    -0.77500
C1823       C  0.29919482  0.72231453  0.93994734     0.82200
N1824       N  0.30438310  0.69232488  0.94775781    -0.80300
C1825       C  0.27746173  0.81216745  0.53064846     0.79700
N1826       N  0.28322074  0.79008467  0.50854074    -0.78600
C1827       C  0.29155465  0.76041495  0.51594194     0.82200
N1828       N  0.29432413  0.75300273  0.54556779    -0.78500
C1829       C  0.28886303  0.77510113  0.56763528     0.82200
N1830       N  0.28044240  0.80449537  0.56002884    -0.80300
O1831       O  0.39832672  0.75508474  0.79994055    -0.72300
O1832       O  0.39645559  0.75906499  0.71395793    -0.72500
O1833       O  0.38657834  0.71364923  0.75685316    -0.72400
O1834       O  0.40832022  0.80037539  0.75667504    -0.72400
O1835       O  0.33922554  0.78809988  0.75341971    -0.72300
O1836       O  0.31788138  0.70320656  0.74222080    -0.72400
O1837       O  0.32866728  0.75312254  0.70533392    -0.72300
O1838       O  0.32817935  0.73808272  0.79036332    -0.72500
V1839       V  0.39835084  0.75682804  0.75671842     1.35200
V1840       V  0.32751497  0.74584441  0.74804730     1.35200
C1841       C  0.30135284  0.74433189  0.80989204     0.76900
C1842       C  0.29982411  0.75731368  0.69531922     0.77000
C1843       C  0.28632683  0.69326716  0.74789876     0.76900
C1844       C  0.31512502  0.80829758  0.75631084     0.76800
C1845       C  0.36699666  0.56893118  0.72337299     0.79700
N1846       N  0.36235469  0.54621565  0.74537045    -0.78600
C1847       C  0.35555865  0.51634446  0.73794851     0.82200
N1848       N  0.35373667  0.50915504  0.70821770    -0.78500
C1849       C  0.35788255  0.53178942  0.68608949     0.82200
N1850       N  0.36458834  0.56154151  0.69385287    -0.80300
C1851       C  0.34839345  0.93630173  0.77882756     0.79700
N1852       N  0.35381378  0.95858415  0.75643886    -0.78600
C1853       C  0.35940070  0.98876636  0.76371877     0.82200
N1854       N  0.35925546  0.99664594  0.79364470    -0.78500
C1855       C  0.35336745  0.97449080  0.81620403     0.82200
N1856       N  0.34784600  0.94457727  0.80847240    -0.80300
C1857       C  0.34362587  0.84806596  0.78399319    -0.26800
C1858       C  0.32401494  0.84112104  0.76059622    -0.14900
C1859       C  0.31420422  0.86520278  0.74170024     0.35700
C1860       C  0.32374850  0.89616221  0.74716184    -0.26300
C1861       C  0.34219410  0.90331601  0.77149859    -0.15500
C1862       C  0.35278645  0.87884386  0.78976513     0.36800
N1863       N  0.24743933  0.88915536  0.81019473    -0.89800
H1864       H  0.22878697  0.83229760  0.79455244     0.17900
H1865       H  0.31572454  0.91483375  0.73305546     0.17900
N1866       N  0.41847046  0.85874222  0.71665816    -0.88800
H1867       H  0.25573008  0.86884786  0.82022842     0.35300
H1868       H  0.27040522  0.90060674  0.79954721     0.40400
H1869       H  0.39383932  0.84952292  0.72642134     0.40000
H1870       H  0.41318882  0.87894424  0.70474129     0.34900
C1871       C  0.28605553  0.61370451  0.71173083    -0.26800
C1872       C  0.37784240  0.60086657  0.73071677    -0.14900
C1873       C  0.36466292  0.61533978  0.75881397     0.35700
C1874       C  0.37616188  0.64573806  0.76425990    -0.26300
C1875       C  0.27798949  0.66028286  0.74269865    -0.15500
C1876       C  0.29562046  0.64452860  0.71678823     0.36800
N1877       N  0.32189779  0.66025889  0.69480486    -0.89800
H1878       H  0.29972436  0.60172859  0.69206283     0.17900
H1879       H  0.36532677  0.65729241  0.78530585     0.17900
N1880       N  0.33921030  0.59949952  0.78136644    -0.88800
H1881       H  0.33006252  0.64606757  0.67588417     0.35300
H1882       H  0.34437830  0.66378290  0.70517366     0.40400
H1883       H  0.31607882  0.59620881  0.77179345     0.40000
H1884       H  0.33228420  0.61341189  0.80070338     0.34900
C1885       C  0.40389448  0.74199052  0.64749691    -0.26800
C1886       C  0.29907199  0.76125120  0.66228315    -0.14900
C1887       C  0.31824405  0.78536010  0.64461176     0.35700
C1888       C  0.31502923  0.78853952  0.61354938    -0.26300
C1889       C  0.29357033  0.76827352  0.59956090    -0.15500
C1890       C  0.40235225  0.74492939  0.61606889     0.36800
N1891       N  0.38055669  0.72349443  0.60249389    -0.89800
H1892       H  0.38882842  0.72351871  0.66068498     0.17900
H1893       H  0.32923026  0.80732751  0.60022904     0.17900
N1894       N  0.34030862  0.80755330  0.65727540    -0.88800
H1895       H  0.36200832  0.73614387  0.59237831     0.35300
H1896       H  0.39670500  0.71128016  0.58532183     0.40400
H1897       H  0.32962698  0.82967855  0.65492035     0.40000
H1898       H  0.21124703  0.80634977  0.68280096     0.34900
C1899       C  0.28259257  0.75979626  0.86446605    -0.26800
C1900       C  0.30203272  0.73977244  0.84311420    -0.14900
C1901       C  0.32116356  0.71499787  0.85381294     0.35700
C1902       C  0.32026611  0.71069900  0.88540897    -0.26300
C1903       C  0.30057541  0.73031800  0.90693746    -0.15500
C1904       C  0.28175088  0.75543679  0.89634776     0.36800
N1905       N  0.38768049  0.77620855  0.91797169    -0.89800
H1906       H  0.39375156  0.77966846  0.85647423     0.17900
H1907       H  0.33511852  0.69157227  0.89324864     0.17900
N1908       N  0.33995970  0.69318227  0.83276239    -0.88800
H1909       H  0.37636757  0.79411310  0.90654973     0.35300
H1910       H  0.36658045  0.76370547  0.93059749     0.40400
H1911       H  0.36270595  0.70444416  0.82145723     0.40000
H1912       H  0.22364792  0.67448554  0.84383978     0.34900
C1913       C  0.25564671  0.49391349  0.64132500    -0.26800
C1914       C  0.35693704  0.52397223  0.65351408    -0.14900
C1915       C  0.34094910  0.54401531  0.63421632     0.35700
C1916       C  0.34086749  0.53627039  0.60349534    -0.26300
C1917       C  0.35740610  0.50926066  0.59110230    -0.15500
C1918       C  0.23954489  0.98755049  0.61305200     0.36800
N1919       N  0.25071971  0.95681603  0.60318130    -0.89800
H1920       H  0.24724039  0.97776537  0.65945785     0.17900
H1921       H  0.32819436  0.55182938  0.58902880     0.17900
N1922       N  0.32430672  0.57219406  0.64569168    -0.88800
H1923       H  0.27741574  0.95463577  0.60570711     0.35300
H1924       H  0.24949147  0.95356883  0.57993001     0.40400
H1925       H  0.29788943  0.57155879  0.64198773     0.40000
H1926       H  0.33696389  0.59083201  0.63283983     0.34900
C1927       C  0.24935717  0.00582615  0.88980488    -0.26800
C1928       C  0.35195798  0.98907054  0.91316566    -0.14900
C1929       C  0.32966148  0.96666290  0.90252996     0.35700
C1930       C  0.32964725  0.96365324  0.87088630    -0.26300
C1931       C  0.35194969  0.98199055  0.84924140    -0.15500
C1932       C  0.24814003  0.00357089  0.85804704     0.36800
N1933       N  0.27338866  0.02039557  0.83612817    -0.89800
H1934       H  0.26883458  0.02105938  0.89757039     0.17900
H1935       H  0.31253952  0.94622477  0.86302851     0.17900
N1936       N  0.30825846  0.94600462  0.92379617    -0.88800
H1937       H  0.29150495  0.03246650  0.84726921     0.35300
H1938       H  0.25945813  0.03731990  0.82574758     0.40400
H1939       H  0.32572523  0.93174674  0.93358281     0.40000
H1940       H  0.29289982  0.93124227  0.91234264     0.34900
C1941       C  0.36793699  0.85926938  0.54352708    -0.26800
C1942       C  0.26721367  0.84427658  0.52350166    -0.14900
C1943       C  0.28440328  0.86102925  0.49764371     0.35700
C1944       C  0.27464707  0.89210303  0.49305564    -0.26300
C1945       C  0.24783496  0.90659209  0.51347305    -0.15500
C1946       C  0.35694451  0.88981121  0.53868379     0.36800
N1947       N  0.32985308  0.90384558  0.56062283    -0.89800
H1948       H  0.35527208  0.84626913  0.56349336     0.17900
H1949       H  0.28816673  0.90516010  0.47357003     0.17900
N1950       N  0.31221198  0.84678141  0.47662106    -0.88800
H1951       H  0.32207033  0.88878396  0.57930596     0.35300
H1952       H  0.30741977  0.90673853  0.55001524     0.40400
H1953       H  0.33313950  0.84195830  0.48863973     0.40000
H1954       H  0.19751118  0.86308109  0.45792121     0.34900
C1955       C  0.31167690  0.59554203  0.96951381    -0.26800
C1956       C  0.33037881  0.58783172  0.99335635    -0.14900
C1957       C  0.21654186  0.61229706  0.01413834     0.35700
C1958       C  0.20755445  0.64341978  0.00852902    -0.26300
C1959       C  0.31089553  0.65016004  0.98405011    -0.15500
C1960       C  0.30182112  0.62632045  0.96454184     0.36800
N1961       N  0.28264960  0.63332704  0.93968259    -0.89800
H1962       H  0.30484433  0.57732123  0.95453944     0.17900
H1963       H  0.21673711  0.66190857  0.02197512     0.17900
N1964       N  0.23864399  0.60609096  0.53885505    -0.88800
H1965       H  0.27844039  0.61320545  0.92750564     0.35300
H1966       H  0.25757760  0.64136707  0.94925493     0.40400
H1967       H  0.26349699  0.59760616  0.52926823     0.40000
H1968       H  0.24342430  0.62626417  0.55073170     0.34900
O1969       O  0.45790314  0.44972850  0.01456390    -0.72300
O1970       O  0.43889396  0.03441075  0.50122823    -0.72500
O1971       O  0.45143822  0.48675247  0.46523139    -0.72400
O1972       O  0.45207777  0.99863987  0.04968426    -0.72400
O1973       O  0.38467761  0.00297404  0.04170259    -0.72300
O1974       O  0.38127962  0.50071565  0.45339066    -0.72400
O1975       O  0.36956438  0.04651800  0.49881922    -0.72300
O1976       O  0.38931490  0.45845321  0.99657154    -0.72500
V1977       V  0.44932951  0.49271954  0.00878091     1.35200
V1978       V  0.37889686  0.00287648  0.49901803     1.35200
C1979       C  0.36471220  0.43918450  0.00598484     0.76900
C1980       C  0.46318941  0.05474161  0.49801472     0.77000
C1981       C  0.47837711  0.49310046  0.44548886     0.76900
C1982       C  0.35664590  0.00192989  0.06110839     0.76800
C1983       C  0.42824295  0.18299488  0.47649520     0.79700
N1984       N  0.42461119  0.20521821  0.49854717    -0.78600
C1985       C  0.41916167  0.23551234  0.49097678     0.82200
N1986       N  0.41771848  0.24353894  0.46117623    -0.77500
C1987       C  0.42181156  0.22146226  0.43903158     0.82200
N1988       N  0.42716527  0.19153467  0.44703087    -0.80300
C1989       C  0.40416013  0.31223715  0.02828903     0.79700
N1990       N  0.40980072  0.28989088  0.00646412    -0.78600
C1991       C  0.41822435  0.26035752  0.01417486     0.82200
N1992       N  0.42112798  0.25331432  0.04384948    -0.78500
C1993       C  0.41580319  0.27568439  0.06566204     0.82200
N1994       N  0.40729628  0.30496445  0.05774039    -0.80300
O1995       O  0.52065933  0.25553013  0.29838458    -0.72300
O1996       O  0.52010449  0.25907342  0.21213938    -0.72500
O1997       O  0.50930000  0.21393541  0.25540166    -0.72400
O1998       O  0.53145636  0.30056531  0.25481971    -0.72400
O1999       O  0.46177721  0.28826230  0.25259337    -0.72300
O2000       O  0.44084582  0.20331294  0.24141855    -0.72400
O2001       O  0.45200151  0.25320862  0.20441705    -0.72300
O2002       O  0.45028626  0.23827975  0.28965657    -0.72500
V2003       V  0.52132774  0.25706899  0.25503942     1.35200
V2004       V  0.45021438  0.24598828  0.24722549     1.35200
C2005       C  0.42299628  0.24387381  0.30894142     0.76900
C2006       C  0.42343012  0.25777875  0.19407166     0.77000
C2007       C  0.40931307  0.19327677  0.24648187     0.76900
C2008       C  0.43762562  0.30841120  0.25558505     0.76800
C2009       C  0.48991467  0.06822210  0.22467582     0.79700
N2010       N  0.48514945  0.04559721  0.24680365    -0.78600
C2011       C  0.47857279  0.01560871  0.23943975     0.82200
N2012       N  0.47695698  0.00829413  0.20969632    -0.78500
C2013       C  0.48118260  0.03083969  0.18747487     0.82200
N2014       N  0.48783499  0.06061559  0.19515303    -0.80300
C2015       C  0.47268280  0.43605033  0.27829472     0.79700
N2016       N  0.47865979  0.45823708  0.25583509    -0.78600
C2017       C  0.48513096  0.48828187  0.26304369     0.82200
N2018       N  0.48533543  0.49612911  0.29288484    -0.78500
C2019       C  0.47894276  0.47411272  0.31547479     0.82200
N2020       N  0.47250277  0.44432779  0.30789712    -0.80300
C2021       C  0.46583360  0.34788954  0.28373998    -0.26800
C2022       C  0.44652980  0.34120540  0.26008649    -0.14900
C2023       C  0.43739220  0.36543964  0.24102511     0.35700
C2024       C  0.44733570  0.39628995  0.24657784    -0.26300
C2025       C  0.46562790  0.40316947  0.27109247    -0.15500
C2026       C  0.47545994  0.37852246  0.28955800     0.36800
N2027       N  0.37024577  0.38740192  0.31132704    -0.89800
H2028       H  0.35066984  0.33086226  0.29548916     0.17900
H2029       H  0.43989556  0.41507874  0.23230553     0.17900
N2030       N  0.54199457  0.35879137  0.21468173    -0.88800
H2031       H  0.37702252  0.36698053  0.32212922     0.35300
H2032       H  0.39407737  0.39785655  0.30118749     0.40400
H2033       H  0.51725958  0.34958956  0.22422751     0.40000
H2034       H  0.53689961  0.37897666  0.20265507     0.34900
C2035       C  0.41155736  0.11266000  0.21215188    -0.26800
C2036       C  0.50077554  0.10029553  0.23171988    -0.14900
C2037       C  0.48710060  0.11544017  0.25932412     0.35700
C2038       C  0.49847605  0.14605387  0.26418663    -0.26300
C2039       C  0.40141700  0.16010226  0.24161229    -0.15500
C2040       C  0.42039140  0.14378499  0.21666512     0.36800
N2041       N  0.44717556  0.15923464  0.19492846    -0.89800
H2042       H  0.42634075  0.10020512  0.19335672     0.17900
H2043       H  0.48726677  0.15809176  0.28480964     0.17900
N2044       N  0.46124086  0.10010157  0.28191305    -0.88800
H2045       H  0.45647937  0.14449432  0.17670975     0.35300
H2046       H  0.46893400  0.16371750  0.20594528     0.40400
H2047       H  0.43841364  0.09638536  0.27202381     0.40000
H2048       H  0.45385045  0.11454871  0.30077916     0.34900
C2049       C  0.52815919  0.24098749  0.14592166    -0.26800
C2050       C  0.42327166  0.26195873  0.16095899    -0.14900
C2051       C  0.44260328  0.28623918  0.14369460     0.35700
C2052       C  0.44034229  0.28939911  0.11242781    -0.26300
C2053       C  0.41961981  0.26898510  0.09784880    -0.15500
C2054       C  0.52643127  0.24379163  0.11451162     0.36800
N2055       N  0.50475453  0.22214040  0.10107671    -0.89800
H2056       H  0.51317715  0.22254536  0.15922720     0.17900
H2057       H  0.45470813  0.30827411  0.09943821     0.17900
N2058       N  0.46389135  0.30860990  0.15698317    -0.88800
H2059       H  0.48596839  0.23460792  0.09108156     0.35300
H2060       H  0.52093360  0.21005267  0.08382436     0.40400
H2061       H  0.45304202  0.33063413  0.15443615     0.40000
H2062       H  0.33895184  0.30462539  0.18031131     0.34900
C2063       C  0.40305169  0.25821704  0.36379308    -0.26800
C2064       C  0.42314018  0.23879523  0.34223403    -0.14900
C2065       C  0.44271537  0.21421990  0.35277142     0.35700
C2066       C  0.44202394  0.20976955  0.38434133    -0.26300
C2067       C  0.42221812  0.22912219  0.40603412    -0.15500
C2068       C  0.40252171  0.25376677  0.39565330     0.36800
N2069       N  0.50846756  0.27585050  0.41691235    -0.89800
H2070       H  0.51477730  0.27956853  0.35539173     0.17900
H2071       H  0.45735347  0.19088910  0.39202833     0.17900
N2072       N  0.46198774  0.19284785  0.33154795    -0.88800
H2073       H  0.49714384  0.29377460  0.40552493     0.35300
H2074       H  0.48738810  0.26326376  0.42945107     0.40400
H2075       H  0.48464476  0.20447779  0.32054422     0.40000
H2076       H  0.34407092  0.17264769  0.34256584     0.34900
C2077       C  0.38080621  0.99309819  0.14137637    -0.26800
C2078       C  0.48039217  0.02292952  0.15487969    -0.14900
C2079       C  0.46507508  0.04318755  0.13529208     0.35700
C2080       C  0.46508843  0.03534067  0.10460243    -0.26300
C2081       C  0.48120561  0.00809214  0.09245565    -0.15500
C2082       C  0.36829626  0.48680932  0.11047547     0.36800
N2083       N  0.38279759  0.45732891  0.09968164    -0.89800
H2084       H  0.37922051  0.47788669  0.15620521     0.17900
H2085       H  0.45291080  0.05106358  0.08993378     0.17900
N2086       N  0.44910283  0.07175781  0.14638239    -0.88800
H2087       H  0.40993461  0.45775943  0.10102858     0.35300
H2088       H  0.38055449  0.45375745  0.07666913     0.40400
H2089       H  0.42274927  0.07162883  0.14248023     0.40000
H2090       H  0.46236757  0.09007000  0.13344919     0.34900
C2091       C  0.37414844  0.50649353  0.38893725    -0.26800
C2092       C  0.47751685  0.48930055  0.41217385    -0.14900
C2093       C  0.45427081  0.46762445  0.40166426     0.35700
C2094       C  0.45439954  0.46439235  0.37005432    -0.26300
C2095       C  0.47770572  0.48177799  0.34837112    -0.15500
C2096       C  0.37294763  0.50414336  0.35716196     0.36800
N2097       N  0.39687237  0.52231866  0.33534288    -0.89800
H2098       H  0.39262466  0.52270466  0.39676340     0.17900
H2099       H  0.43656643  0.44754748  0.36226047     0.17900
N2100       N  0.43169910  0.44789924  0.42302742    -0.88800
H2101       H  0.41426500  0.53524376  0.34652280     0.35300
H2102       H  0.38169442  0.53853602  0.32531834     0.40400
H2103       H  0.44833992  0.43300536  0.43304484     0.40000
H2104       H  0.41567448  0.43371305  0.41163644     0.34900
C2105       C  0.49036770  0.35813681  0.04220350    -0.26800
C2106       C  0.39315371  0.34400724  0.02084134    -0.14900
C2107       C  0.40979250  0.36068274  0.99473182     0.35700
C2108       C  0.39947236  0.39155665  0.99002062    -0.26300
C2109       C  0.37257686  0.40588180  0.01048853    -0.15500
C2110       C  0.47975719  0.38888883  0.03773929     0.36800
N2111       N  0.45279772  0.40288191  0.05983501    -0.89800
H2112       H  0.47746689  0.34498515  0.06194121     0.17900
H2113       H  0.41266297  0.40460095  0.97043481     0.17900
N2114       N  0.43759098  0.34658196  0.97357396    -0.88800
H2115       H  0.44473970  0.38759266  0.07828051     0.35300
H2116       H  0.43046376  0.40627614  0.04920417     0.40400
H2117       H  0.45877651  0.34211982  0.98538491     0.40000
H2118       H  0.32162966  0.36317953  0.95625056     0.34900
C2119       C  0.43524218  0.09493217  0.47000320    -0.26800
C2120       C  0.45437862  0.08763724  0.49368365    -0.14900
C2121       C  0.34054672  0.11245760  0.51332151     0.35700
C2122       C  0.33134206  0.14349911  0.50757510    -0.26300
C2123       C  0.43473808  0.14981533  0.48366057    -0.15500
C2124       C  0.42525538  0.12562924  0.46471142     0.36800
N2125       N  0.40558650  0.13219683  0.44007945    -0.89800
H2126       H  0.42820738  0.07646268  0.45539387     0.17900
H2127       H  0.34067360  0.16213798  0.52075245     0.17900
N2128       N  0.36298528  0.10525608  0.03886449    -0.88800
H2129       H  0.40094344  0.11183275  0.42843510     0.35300
H2130       H  0.38071381  0.14052451  0.44981198     0.40400
H2131       H  0.38762451  0.09613373  0.02959566     0.40000
H2132       H  0.36824505  0.12556428  0.05033304     0.34900
O2133       O  0.46127137  0.45059207  0.51338623    -0.72300
O2134       O  0.44178530  0.03462755  0.00178597    -0.72500
O2135       O  0.44799786  0.48611383  0.96630788    -0.72400
O2136       O  0.44952182  0.99936844  0.54975627    -0.72400
O2137       O  0.38209077  0.00426917  0.54148237    -0.72300
O2138       O  0.37850193  0.50122294  0.95349440    -0.72400
O2139       O  0.37302250  0.04607036  0.99949360    -0.72300
O2140       O  0.39194227  0.45844818  0.49703293    -0.72500
V2141       V  0.45273583  0.49353297  0.50758926     1.35200
V2142       V  0.38162862  0.00227097  0.99915778     1.35200
C2143       C  0.36708284  0.43951498  0.50679433     0.76900
C2144       C  0.46619410  0.05486540  0.99871514     0.77000
C2145       C  0.47478193  0.49282998  0.94651535     0.76900
C2146       C  0.35420138  0.00275766  0.56101774     0.76800
C2147       C  0.43363991  0.18361290  0.97639495     0.79700
N2148       N  0.42914957  0.20591730  0.99838628    -0.78600
C2149       C  0.42367758  0.23614568  0.99053021     0.82200
N2150       N  0.42299668  0.24397464  0.96060621    -0.77500
C2151       C  0.42795753  0.22186514  0.93855782     0.82200
N2152       N  0.43337132  0.19199748  0.94674605    -0.80300
C2153       C  0.40277986  0.31165457  0.52931465     0.79700
N2154       N  0.40720196  0.28936723  0.50739733    -0.78600
C2155       C  0.41487542  0.25957566  0.51482245     0.82200
N2156       N  0.41831892  0.25220211  0.54435056    -0.78500
C2157       C  0.41417217  0.27454019  0.56626970     0.82200
N2158       N  0.40636201  0.30406981  0.55857900    -0.80300
O2159       O  0.52463532  0.25602327  0.79806618    -0.72300
O2160       O  0.52225258  0.25936774  0.71203449    -0.72500
O2161       O  0.51293530  0.21419358  0.75526504    -0.72400
O2162       O  0.53387084  0.30100670  0.75452727    -0.72400
O2163       O  0.46499713  0.28807326  0.75222514    -0.72300
O2164       O  0.44347033  0.20312267  0.74083099    -0.72400
O2165       O  0.45395971  0.25324787  0.70408619    -0.72300
O2166       O  0.45430889  0.23776622  0.78896416    -0.72500
V2167       V  0.52433988  0.25744246  0.75482513     1.35200
V2168       V  0.45318694  0.24578131  0.74674565     1.35200
C2169       C  0.42751381  0.24349950  0.80871159     0.76900
C2170       C  0.42503707  0.25771204  0.69427887     0.77000
C2171       C  0.41188862  0.19318983  0.74643878     0.76900
C2172       C  0.44087064  0.30825476  0.75571489     0.76800
C2173       C  0.49414985  0.06865062  0.72370100     0.79700
N2174       N  0.49046214  0.04595883  0.74578122    -0.78600
C2175       C  0.48339124  0.01599918  0.73866105     0.82200
N2176       N  0.48016966  0.00880162  0.70917019    -0.78500
C2177       C  0.48339663  0.03140379  0.68696616     0.82200
N2178       N  0.49053601  0.06113336  0.69448609    -0.80300
C2179       C  0.47279762  0.43668932  0.77864913     0.79700
N2180       N  0.47823280  0.45892135  0.75619957    -0.78600
C2181       C  0.48318742  0.48922307  0.76343317     0.82200
N2182       N  0.48239258  0.49730253  0.79337426    -0.78500
C2183       C  0.47646205  0.47523950  0.81600110     0.82200
N2184       N  0.47157697  0.44516640  0.80834012    -0.80300
C2185       C  0.46878481  0.34828076  0.78381148    -0.26800
C2186       C  0.44976829  0.34114268  0.76004985    -0.14900
C2187       C  0.44030404  0.36515408  0.74089493     0.35700
C2188       C  0.44943155  0.39619703  0.74651001    -0.26300
C2189       C  0.46713046  0.40356858  0.77125925    -0.15500
C2190       C  0.47748584  0.37918021  0.78976053     0.36800
N2191       N  0.37304978  0.38877590  0.80955926    -0.89800
H2192       H  0.35452767  0.33200892  0.79352288     0.17900
H2193       H  0.44161927  0.41477057  0.73217855     0.17900
N2194       N  0.54494949  0.35896458  0.71379856    -0.88800
H2195       H  0.38093176  0.36842892  0.81980267     0.35300
H2196       H  0.39626537  0.40015691  0.79937355     0.40400
H2197       H  0.52009392  0.34973035  0.72296077     0.40000
H2198       H  0.54010955  0.37900194  0.70144070     0.34900
C2199       C  0.41199878  0.11305158  0.71119978    -0.26800
C2200       C  0.50482284  0.10086428  0.73049331    -0.14900
C2201       C  0.49191333  0.11566406  0.75845522     0.35700
C2202       C  0.50326573  0.14626288  0.76336265    -0.26300
C2203       C  0.40348044  0.16013185  0.74142108    -0.15500
C2204       C  0.42148634  0.14398606  0.71592339     0.36800
N2205       N  0.44803500  0.15942429  0.69396958    -0.89800
H2206       H  0.42592524  0.10072296  0.69190239     0.17900
H2207       H  0.49270820  0.15797409  0.78436968     0.17900
N2208       N  0.46668722  0.10001472  0.78133237    -0.88800
H2209       H  0.45651242  0.14492515  0.67535440     0.35300
H2210       H  0.47027933  0.16321714  0.70457850     0.40400
H2211       H  0.44346318  0.09649499  0.77193697     0.40000
H2212       H  0.45984555  0.11418643  0.80049135     0.34900
C2213       C  0.52898127  0.24225108  0.64595095    -0.26800
C2214       C  0.42405970  0.26154678  0.66121942    -0.14900
C2215       C  0.44328693  0.28548939  0.64335234     0.35700
C2216       C  0.44032138  0.28827903  0.61218917    -0.26300
C2217       C  0.41902665  0.26779089  0.59824412    -0.15500
C2218       C  0.52701903  0.24470405  0.61455543     0.36800
N2219       N  0.50504184  0.22298230  0.60154060    -0.89800
H2220       H  0.51389226  0.22405146  0.65953714     0.17900
H2221       H  0.45456549  0.30697548  0.59875505     0.17900
N2222       N  0.46520209  0.30788122  0.65591558    -0.88800
H2223       H  0.48635984  0.23539734  0.59137508     0.35300
H2224       H  0.52103954  0.21050487  0.58447793     0.40400
H2225       H  0.45452918  0.32995402  0.65324519     0.40000
H2226       H  0.34002810  0.30530544  0.67942958     0.34900
C2227       C  0.40812368  0.25780095  0.86350186    -0.26800
C2228       C  0.42856775  0.23869233  0.84189483    -0.14900
C2229       C  0.44921470  0.21479185  0.85233638     0.35700
C2230       C  0.44894996  0.21059765  0.88389992    -0.26300
C2231       C  0.42846252  0.22946907  0.90559363    -0.15500
C2232       C  0.40793614  0.25355085  0.89529498     0.36800
N2233       N  0.51389810  0.27661676  0.91617961    -0.89800
H2234       H  0.51987899  0.28020951  0.85472845     0.17900
H2235       H  0.46493932  0.19220633  0.89161150     0.17900
N2236       N  0.46894333  0.19368622  0.83110392    -0.88800
H2237       H  0.50256196  0.29453758  0.90479825     0.35300
H2238       H  0.49281361  0.26403257  0.92871415     0.40400
H2239       H  0.49084744  0.20584116  0.81949162     0.40000
H2240       H  0.34856162  0.17344228  0.84162055     0.34900
C2241       C  0.37859308  0.99334287  0.64112356    -0.26800
C2242       C  0.48089938  0.02363557  0.65450052    -0.14900
C2243       C  0.46864766  0.04553380  0.63445400     0.35700
C2244       C  0.46743943  0.03777675  0.60388118    -0.26300
C2245       C  0.47921558  0.00887345  0.59229368    -0.15500
C2246       C  0.37391017  0.48902744  0.61010524     0.36800
N2247       N  0.39059780  0.46042666  0.59911383    -0.89800
H2248       H  0.38569542  0.48099650  0.65572358     0.17900
H2249       H  0.45777683  0.05480291  0.58886543     0.17900
N2250       N  0.45704318  0.07573252  0.64490903    -0.88800
H2251       H  0.41764411  0.46236800  0.60050443     0.35300
H2252       H  0.38860295  0.45660022  0.57609691     0.40400
H2253       H  0.43084725  0.07847505  0.64105908     0.40000
H2254       H  0.47278551  0.09240558  0.63155797     0.34900
C2255       C  0.37215194  0.50715866  0.88901032    -0.26800
C2256       C  0.47368245  0.48980064  0.91307418    -0.14900
C2257       C  0.45064287  0.46822859  0.90213557     0.35700
C2258       C  0.45104320  0.46530665  0.87042852    -0.26300
C2259       C  0.47427874  0.48305872  0.84902127    -0.15500
C2260       C  0.37151001  0.50476410  0.85717667     0.36800
N2261       N  0.39577122  0.52289095  0.83557458    -0.89800
H2262       H  0.39035502  0.52346412  0.89708132     0.17900
H2263       H  0.43360699  0.44831425  0.86232179     0.17900
N2264       N  0.42822852  0.44809819  0.92314942    -0.88800
H2265       H  0.41296719  0.53580467  0.84697025     0.35300
H2266       H  0.38083671  0.53911967  0.82530984     0.40400
H2267       H  0.44510700  0.43301792  0.93264662     0.40000
H2268       H  0.41218166  0.43416447  0.91153559     0.34900
C2269       C  0.49248171  0.35900789  0.54134997    -0.26800
C2270       C  0.39298772  0.34381834  0.52209377    -0.14900
C2271       C  0.40985679  0.36006154  0.49579113     0.35700
C2272       C  0.40053088  0.39119976  0.49102810    -0.26300
C2273       C  0.37436963  0.40618338  0.51167605    -0.15500
C2274       C  0.48239365  0.38985884  0.53674442     0.36800
N2275       N  0.45545664  0.40412967  0.55864990    -0.89800
H2276       H  0.47922867  0.34596553  0.56106625     0.17900
H2277       H  0.41383177  0.40389537  0.47119431     0.17900
N2278       N  0.43687556  0.34520736  0.47445617    -0.88800
H2279       H  0.44713685  0.38897672  0.57715262     0.35300
H2280       H  0.43324113  0.40760391  0.54788646     0.40400
H2281       H  0.45814819  0.34026499  0.48602917     0.40000
H2282       H  0.32328756  0.36301147  0.45636806     0.34900
C2283       C  0.43792608  0.09533005  0.97128159    -0.26800
C2284       C  0.45763816  0.08789677  0.99453612    -0.14900
C2285       C  0.34419859  0.11252500  0.01386373     0.35700
C2286       C  0.33526069  0.14362291  0.00785293    -0.26300
C2287       C  0.43953686  0.15040586  0.98391195    -0.15500
C2288       C  0.42890805  0.12620014  0.96556820     0.36800
N2289       N  0.40925160  0.13295481  0.94097316    -0.89800
H2290       H  0.42996208  0.07685745  0.95712321     0.17900
H2291       H  0.34399611  0.16224286  0.02139487     0.17900
N2292       N  0.36029442  0.10526077  0.53770875    -0.88800
H2293       H  0.40358910  0.11254373  0.92984244     0.35300
H2294       H  0.38485699  0.14225887  0.95064338     0.40400
H2295       H  0.38474231  0.09620543  0.52786277     0.40000
H2296       H  0.36592028  0.12558552  0.54898690     0.34900
O2297       O  0.46158202  0.94924875  0.01288890    -0.72300
O2298       O  0.44197248  0.53603336  0.50227700    -0.72500
O2299       O  0.44899788  0.98476182  0.46491479    -0.72400
O2300       O  0.44904537  0.49910225  0.05157268    -0.72400
O2301       O  0.38161817  0.50308025  0.03937573    -0.72300
O2302       O  0.37793834  0.00185118  0.45601555    -0.72400
O2303       O  0.37392970  0.54583553  0.49605750    -0.72300
O2304       O  0.39184818  0.95887085  0.99868696    -0.72500
V2305       V  0.45279970  0.99216821  0.00703788     1.35200
V2306       V  0.38215901  0.50196994  0.49654644     1.35200
C2307       C  0.36724978  0.93959113  0.00812039     0.76900
C2308       C  0.46648218  0.55616679  0.49921848     0.77000
C2309       C  0.47575655  0.99143603  0.44510954     0.76900
C2310       C  0.35325040  0.50271999  0.05841239     0.76800
C2311       C  0.43334310  0.68483918  0.47720687     0.79700
N2312       N  0.42921360  0.70711617  0.49919092    -0.78600
C2313       C  0.42372372  0.73735891  0.49143608     0.82200
N2314       N  0.42274240  0.74527251  0.46152958    -0.77500
C2315       C  0.42736235  0.72312166  0.43945535     0.82200
N2316       N  0.43270509  0.69325296  0.44765186    -0.80300
C2317       C  0.40717571  0.81271365  0.02957227     0.79700
N2318       N  0.41149832  0.79046010  0.00761256    -0.78600
C2319       C  0.41964810  0.76076254  0.01490040     0.82200
N2320       N  0.42354974  0.75342985  0.04429825    -0.78500
C2321       C  0.41953693  0.77569808  0.06624072     0.82200
N2322       N  0.41128094  0.80518028  0.05875646    -0.80300
O2323       O  0.52660320  0.75276879  0.29920897    -0.72300
O2324       O  0.52380006  0.75706261  0.21337913    -0.72500
O2325       O  0.51481126  0.71139342  0.25590951    -0.72400
O2326       O  0.53557073  0.79824618  0.25628295    -0.72400
O2327       O  0.46678972  0.78757871  0.25261940    -0.72300
O2328       O  0.44507651  0.70217713  0.24149251    -0.72400
O2329       O  0.45646897  0.75224554  0.20460206    -0.72300
O2330       O  0.45551982  0.73735343  0.28968492    -0.72500
V2331       V  0.52615073  0.75466432  0.25604918     1.35200
V2332       V  0.45503188  0.74504805  0.24732379     1.35200
C2333       C  0.42867527  0.74380229  0.30913790     0.76900
C2334       C  0.42781250  0.75670281  0.19439218     0.77000
C2335       C  0.41331211  0.69260035  0.24732431     0.76900
C2336       C  0.44263725  0.80782605  0.25513020     0.76800
C2337       C  0.50282736  0.56464770  0.22371410     0.79700
N2338       N  0.49788914  0.54224785  0.24597815    -0.78600
C2339       C  0.49105414  0.51231076  0.23878246     0.82200
N2340       N  0.48884553  0.50487660  0.20918773    -0.78500
C2341       C  0.49330813  0.52725254  0.18685118     0.82200
N2342       N  0.50055749  0.55700390  0.19424381    -0.80300
C2343       C  0.46851845  0.93774944  0.27754721     0.79700
N2344       N  0.47107603  0.96056700  0.25560890    -0.78600
C2345       C  0.47479965  0.99098384  0.26333147     0.82200
N2346       N  0.47575109  0.99849111  0.29317829    -0.78500
C2347       C  0.47267516  0.97580833  0.31520675     0.82200
N2348       N  0.46890711  0.94575683  0.30712021    -0.80300
C2349       C  0.47045987  0.84916445  0.28185995    -0.26800
C2350       C  0.45095124  0.84103785  0.25872968    -0.14900
C2351       C  0.43919389  0.86457098  0.24018294     0.35700
C2352       C  0.44654201  0.89603950  0.24579630    -0.26300
C2353       C  0.46476907  0.90434472  0.26992536    -0.15500
C2354       C  0.47741157  0.88046725  0.28781485     0.36800
N2355       N  0.37268203  0.88536913  0.31499152    -0.89800
H2356       H  0.35359927  0.82896440  0.29808720     0.17900
H2357       H  0.43689981  0.91416565  0.23198646     0.17900
N2358       N  0.54583452  0.85669820  0.21571016    -0.88800
H2359       H  0.37876896  0.86485757  0.32602401     0.35300
H2360       H  0.39688690  0.89565672  0.30555645     0.40400
H2361       H  0.52125991  0.84703636  0.22501613     0.40000
H2362       H  0.54041366  0.87688024  0.20382928     0.34900
C2363       C  0.40185963  0.61641927  0.20758491    -0.26800
C2364       C  0.51183959  0.59697737  0.23096361    -0.14900
C2365       C  0.49319661  0.61312142  0.25613653     0.35700
C2366       C  0.50278233  0.64418724  0.26122392    -0.26300
C2367       C  0.40373683  0.65992087  0.24206845    -0.15500
C2368       C  0.41537561  0.64583065  0.21356430     0.36800
N2369       N  0.43939578  0.66210391  0.19017659    -0.89800
H2370       H  0.40972236  0.60646637  0.18522059     0.17900
H2371       H  0.48829170  0.65680413  0.28029803     0.17900
N2372       N  0.46423209  0.59822999  0.27592831    -0.88800
H2373       H  0.44358721  0.64927793  0.16989020     0.35300
H2374       H  0.46401269  0.66350395  0.19773260     0.40400
H2375       H  0.44436668  0.59346087  0.26272109     0.40000
H2376       H  0.45316866  0.61342171  0.29318581     0.34900
C2377       C  0.53079941  0.73909497  0.14692398    -0.26800
C2378       C  0.42756871  0.76105058  0.16128365    -0.14900
C2379       C  0.44841035  0.78432661  0.14369532     0.35700
C2380       C  0.44606490  0.78766391  0.11244794    -0.26300
C2381       C  0.42372726  0.76848072  0.09823283    -0.15500
C2382       C  0.52811105  0.74211088  0.11568890     0.36800
N2383       N  0.50701848  0.71981328  0.10243805    -0.89800
H2384       H  0.51694864  0.72005733  0.16019269     0.17900
H2385       H  0.46154997  0.80579169  0.09920302     0.17900
N2386       N  0.47130855  0.80559244  0.15660807    -0.88800
H2387       H  0.48744936  0.73165374  0.09286978     0.35300
H2388       H  0.52337644  0.70824747  0.08491417     0.40400
H2389       H  0.46214666  0.82817135  0.15362419     0.40000
H2390       H  0.34065537  0.80426938  0.18054991     0.34900
C2391       C  0.40978554  0.75948646  0.36369202    -0.26800
C2392       C  0.42922565  0.73935289  0.34243223    -0.14900
C2393       C  0.44832190  0.71462861  0.35328923     0.35700
C2394       C  0.44767027  0.71069324  0.38492072    -0.26300
C2395       C  0.42819598  0.73056782  0.40634969    -0.15500
C2396       C  0.40912173  0.75543771  0.39560473     0.36800
N2397       N  0.51366728  0.77475017  0.41661168    -0.89800
H2398       H  0.51989854  0.77719940  0.35509765     0.17900
H2399       H  0.46259704  0.69167577  0.39286630     0.17900
N2400       N  0.46681627  0.69249482  0.33238498    -0.88800
H2401       H  0.50095045  0.79155299  0.40495011     0.35300
H2402       H  0.49361488  0.76114053  0.42929840     0.40400
H2403       H  0.48963995  0.70348398  0.32088198     0.40000
H2404       H  0.35332148  0.67441461  0.34459966     0.34900
C2405       C  0.36805631  0.49427778  0.14152813    -0.26800
C2406       C  0.48831742  0.51979541  0.15504938    -0.14900
C2407       C  0.46784041  0.53930367  0.13882412     0.35700
C2408       C  0.46380137  0.53209302  0.10858973    -0.26300
C2409       C  0.48009772  0.50593116  0.09405380    -0.15500
C2410       C  0.37832834  0.98606475  0.11068617     0.36800
N2411       N  0.39537200  0.95830635  0.09782257    -0.89800
H2412       H  0.39649068  0.97826988  0.15403150     0.17900
H2413       H  0.44859030  0.54743023  0.09597636     0.17900
N2414       N  0.45070122  0.56613027  0.15336814    -0.88800
H2415       H  0.42274330  0.96114294  0.09698465     0.35300
H2416       H  0.39079571  0.95458247  0.07540549     0.40400
H2417       H  0.43254528  0.55786893  0.17197091     0.40000
H2418       H  0.43600353  0.57766449  0.13859177     0.34900
C2419       C  0.37128531  0.00765126  0.39195469    -0.26800
C2420       C  0.47439889  0.98826134  0.41178822    -0.14900
C2421       C  0.45095226  0.96678799  0.40125719     0.35700
C2422       C  0.44996847  0.96454962  0.36973301    -0.26300
C2423       C  0.47228562  0.98279835  0.34811469    -0.15500
C2424       C  0.37146612  0.00463498  0.36011287     0.36800
N2425       N  0.39543439  0.02318966  0.33867084    -0.89800
H2426       H  0.38882212  0.02451981  0.40009814     0.17900
H2427       H  0.43207140  0.94778820  0.36188811     0.17900
N2428       N  0.42930863  0.94626150  0.42246888    -0.88800
H2429       H  0.41192388  0.03672888  0.35021730     0.35300
H2430       H  0.38014953  0.03887919  0.32810653     0.40400
H2431       H  0.44662171  0.93107255  0.43130572     0.40000
H2432       H  0.41286167  0.93244758  0.41113621     0.34900
C2433       C  0.49342593  0.85860016  0.04293214    -0.26800
C2434       C  0.39616970  0.84456293  0.02257188    -0.14900
C2435       C  0.41230963  0.86123183  0.99628176     0.35700
C2436       C  0.40187320  0.89208959  0.99172856    -0.26300
C2437       C  0.37517738  0.90630653  0.01247896    -0.15500
C2438       C  0.48350411  0.88942721  0.03798030     0.36800
N2439       N  0.45712605  0.90421698  0.05999932    -0.89800
H2440       H  0.48024332  0.84591452  0.06289025     0.17900
H2441       H  0.41479835  0.90521560  0.97202738     0.17900
N2442       N  0.43970834  0.84710134  0.97474685    -0.88800
H2443       H  0.44917841  0.88948756  0.07891382     0.35300
H2444       H  0.43458631  0.90750588  0.04962442     0.40400
H2445       H  0.46120795  0.84263388  0.98617579     0.40000
H2446       H  0.32274143  0.86013186  0.95777946     0.34900
C2447       C  0.43818076  0.59663491  0.47178326    -0.26800
C2448       C  0.45803969  0.58921975  0.49495196    -0.14900
C2449       C  0.34352025  0.61173816  0.51298401     0.35700
C2450       C  0.33380768  0.64292427  0.50833758    -0.26300
C2451       C  0.43955200  0.65166820  0.48456063    -0.15500
C2452       C  0.42890746  0.62746997  0.46622779     0.36800
N2453       N  0.40895582  0.63419724  0.44182062    -0.89800
H2454       H  0.43022929  0.57817039  0.45761337     0.17900
H2455       H  0.34143807  0.66097969  0.52308672     0.17900
N2456       N  0.35620080  0.60311416  0.03902981    -0.88800
H2457       H  0.40320395  0.61378112  0.43074190     0.35300
H2458       H  0.38461528  0.64347200  0.45166938     0.40400
H2459       H  0.38170203  0.59544667  0.03028351     0.40000
H2460       H  0.35945487  0.62284826  0.05207110     0.34900
O2461       O  0.45910370  0.94935803  0.51367980    -0.72300
O2462       O  0.43859096  0.53522005  0.00355478    -0.72500
O2463       O  0.45175101  0.98550207  0.96464309    -0.72400
O2464       O  0.45241508  0.49994536  0.55030714    -0.72400
O2465       O  0.38508588  0.50370692  0.53917856    -0.72300
O2466       O  0.38076252  0.00187877  0.95605684    -0.72400
O2467       O  0.37030995  0.54564462  0.99670980    -0.72300
O2468       O  0.38985699  0.95964295  0.49902365    -0.72500
V2469       V  0.45011532  0.99214297  0.50718620     1.35200
V2470       V  0.37903740  0.50188122  0.99667714     1.35200
C2471       C  0.36555611  0.94010548  0.50843392     0.76900
C2472       C  0.46315211  0.55530221  0.00052009     0.77000
C2473       C  0.47872807  0.99198336  0.94499380     0.76900
C2474       C  0.35682987  0.50363461  0.55835718     0.76800
C2475       C  0.43165331  0.68386551  0.97731610     0.79700
N2476       N  0.42867680  0.70632975  0.99907684    -0.78600
C2477       C  0.42336557  0.73655261  0.99126244     0.82200
N2478       N  0.42132798  0.74425801  0.96150836    -0.77500
C2479       C  0.42478518  0.72191897  0.93960744     0.82200
N2480       N  0.43005431  0.69205227  0.94785399    -0.80300
C2481       C  0.40564776  0.81328409  0.52989436     0.79700
N2482       N  0.41070028  0.79111449  0.50786567    -0.78600
C2483       C  0.41885958  0.76142786  0.51525039     0.82200
N2484       N  0.42205787  0.75405446  0.54481066    -0.78500
C2485       C  0.41730009  0.77626912  0.56680458     0.82200
N2486       N  0.40906577  0.80569698  0.55919474    -0.80300
O2487       O  0.52211568  0.75356951  0.79926391    -0.72300
O2488       O  0.52148999  0.75859720  0.71314500    -0.72500
O2489       O  0.51098754  0.71270308  0.75539258    -0.72400
O2490       O  0.53272366  0.79933922  0.75648300    -0.72400
O2491       O  0.46400457  0.78893271  0.75342193    -0.72300
O2492       O  0.44224360  0.70385863  0.74202090    -0.72400
O2493       O  0.45364013  0.75395038  0.70528932    -0.72300
O2494       O  0.45245998  0.73859836  0.79030294    -0.72500
V2495       V  0.52276432  0.75585354  0.75595430     1.35200
V2496       V  0.45214216  0.74657505  0.74798403     1.35200
C2497       C  0.42550525  0.74478653  0.80972685     0.76900
C2498       C  0.42495192  0.75830131  0.69509728     0.77000
C2499       C  0.41056869  0.69418852  0.74785419     0.76900
C2500       C  0.44001937  0.80929288  0.75596142     0.76800
C2501       C  0.49966449  0.56559820  0.72371904     0.79700
N2502       N  0.49483732  0.54331997  0.74611716    -0.78600
C2503       C  0.48872690  0.51319969  0.73901095     0.82200
N2504       N  0.48719986  0.50547114  0.70931881    -0.78500
C2505       C  0.49155148  0.52777570  0.68686897     0.82200
N2506       N  0.49803738  0.55765884  0.69424662    -0.80300
C2507       C  0.47162108  0.93838738  0.77729021     0.79700
N2508       N  0.47488874  0.96108845  0.75520152    -0.78600
C2509       C  0.47983852  0.99140832  0.76267345     0.82200
N2510       N  0.48121677  0.99893588  0.79248171    -0.78500
C2511       C  0.47742427  0.97635618  0.81467375     0.82200
N2512       N  0.47249048  0.94642184  0.80678041    -0.80300
C2513       C  0.46929902  0.84984490  0.78236116    -0.26800
C2514       C  0.44892066  0.84236031  0.75965184    -0.14900
C2515       C  0.43778948  0.86626361  0.74117443     0.35700
C2516       C  0.44678269  0.89746984  0.74638034    -0.26300
C2517       C  0.46604435  0.90514478  0.77003469    -0.15500
C2518       C  0.47785238  0.88086502  0.78794057     0.36800
N2519       N  0.37273659  0.88524804  0.81416814    -0.89800
H2520       H  0.35145154  0.82930176  0.79813085     0.17900
H2521       H  0.43769385  0.91591826  0.73261049     0.17900
N2522       N  0.54442168  0.85757721  0.71594552    -0.88800
H2523       H  0.37851337  0.86462510  0.82517600     0.35300
H2524       H  0.39708110  0.89498857  0.80430296     0.40400
H2525       H  0.51949134  0.84859806  0.72521779     0.40000
H2526       H  0.53977957  0.87777152  0.70374052     0.34900
C2527       C  0.40266000  0.61690678  0.70913625    -0.26800
C2528       C  0.50821032  0.59809362  0.73070665    -0.14900
C2529       C  0.48934472  0.61427331  0.75573002     0.35700
C2530       C  0.49862135  0.64545158  0.76062479    -0.26300
C2531       C  0.40144688  0.66139632  0.74276162    -0.15500
C2532       C  0.41540925  0.64654054  0.71516029     0.36800
N2533       N  0.44116568  0.66215887  0.69264916    -0.89800
H2534       H  0.41247696  0.60624934  0.68745373     0.17900
H2535       H  0.48397866  0.65809120  0.77958891     0.17900
N2536       N  0.46062860  0.59923240  0.77568239    -0.88800
H2537       H  0.44688447  0.64879668  0.67279187     0.35300
H2538       H  0.46484573  0.66365818  0.70172967     0.40400
H2539       H  0.44087018  0.59391681  0.76254199     0.40000
H2540       H  0.44927757  0.61451154  0.79274650     0.34900
C2541       C  0.52965372  0.74091438  0.64690925    -0.26800
C2542       C  0.42467608  0.76245795  0.66203075    -0.14900
C2543       C  0.44429380  0.78655047  0.64471728     0.35700
C2544       C  0.44224646  0.78957318  0.61341516    -0.26300
C2545       C  0.42131566  0.76930652  0.59888462    -0.15500
C2546       C  0.52781511  0.74380480  0.61554601     0.36800
N2547       N  0.50640131  0.72196381  0.60206154    -0.89800
H2548       H  0.51501247  0.72223464  0.66012651     0.17900
H2549       H  0.45681528  0.80832509  0.60037370     0.17900
N2550       N  0.46561772  0.80891083  0.65799471    -0.88800
H2551       H  0.48742288  0.73425328  0.59213674     0.35300
H2552       H  0.52271014  0.71003329  0.58477500     0.40400
H2553       H  0.45500584  0.83097873  0.65516283     0.40000
H2554       H  0.34005130  0.80410932  0.68074594     0.34900
C2555       C  0.40751404  0.75992599  0.86448536    -0.26800
C2556       C  0.42574300  0.73946057  0.84289893    -0.14900
C2557       C  0.44328419  0.71351010  0.85326912     0.35700
C2558       C  0.44257932  0.70881751  0.88481926    -0.26300
C2559       C  0.42472401  0.72929750  0.90659606    -0.15500
C2560       C  0.40686297  0.75519110  0.89629721     0.36800
N2561       N  0.50753776  0.77358416  0.91742732    -0.89800
H2562       H  0.51368959  0.77643921  0.85589592     0.17900
H2563       H  0.45644510  0.68891910  0.89237922     0.17900
N2564       N  0.46046390  0.69114823  0.83189189    -0.88800
H2565       H  0.49449519  0.79026557  0.90589826     0.35300
H2566       H  0.48776964  0.75994867  0.93040055     0.40400
H2567       H  0.48388608  0.70141014  0.82060349     0.40000
H2568       H  0.34906700  0.67440332  0.84460883     0.34900
C2569       C  0.37308238  0.49651113  0.64120896    -0.26800
C2570       C  0.48780593  0.52018936  0.65478338    -0.14900
C2571       C  0.46810185  0.53971017  0.63784257     0.35700
C2572       C  0.46563086  0.53271398  0.60726368    -0.26300
C2573       C  0.48295535  0.50691675  0.59294309    -0.15500
C2574       C  0.37565988  0.98641304  0.61049033     0.36800
N2575       N  0.39188406  0.95833972  0.59756670    -0.89800
H2576       H  0.39383225  0.97805570  0.65373697     0.17900
H2577       H  0.45073286  0.54792474  0.59424386     0.17900
N2578       N  0.45016251  0.56637230  0.65198500    -0.88800
H2579       H  0.41934203  0.96065477  0.59655027     0.35300
H2580       H  0.38707814  0.95480930  0.57518173     0.40400
H2581       H  0.43123316  0.55787002  0.66988375     0.40000
H2582       H  0.43628288  0.57801855  0.63666024     0.34900
C2583       C  0.37395028  0.00785539  0.89164296    -0.26800
C2584       C  0.47767652  0.98895179  0.91156626    -0.14900
C2585       C  0.45351738  0.96832240  0.90077289     0.35700
C2586       C  0.45321584  0.96597318  0.86913412    -0.26300
C2587       C  0.47671568  0.98339904  0.84765431    -0.15500
C2588       C  0.37407618  0.00470448  0.85976739     0.36800
N2589       N  0.39771718  0.02345313  0.83825009    -0.89800
H2590       H  0.39122284  0.02499208  0.89972685     0.17900
H2591       H  0.43480312  0.94982019  0.86110433     0.17900
N2592       N  0.43028332  0.94882359  0.92184979    -0.88800
H2593       H  0.41408754  0.03718404  0.84973580     0.35300
H2594       H  0.38217067  0.03895710  0.82774110     0.40400
H2595       H  0.44637266  0.93301239  0.93136678     0.40000
H2596       H  0.41350889  0.93560455  0.91029416     0.34900
C2597       C  0.49286846  0.85894363  0.54348519    -0.26800
C2598       C  0.39478322  0.84516353  0.52288087    -0.14900
C2599       C  0.41131325  0.86200615  0.49685084     0.35700
C2600       C  0.40093769  0.89289880  0.49238275    -0.26300
C2601       C  0.37394448  0.90696853  0.51295198    -0.15500
C2602       C  0.48219729  0.88958848  0.53859405     0.36800
N2603       N  0.45600501  0.90417296  0.56093472    -0.89800
H2604       H  0.48066983  0.84635401  0.56385675     0.17900
H2605       H  0.41406162  0.90613449  0.47286345     0.17900
N2606       N  0.43897124  0.84799954  0.47548007    -0.88800
H2607       H  0.44857621  0.88940485  0.57990988     0.35300
H2608       H  0.43317389  0.90724773  0.55091086     0.40400
H2609       H  0.46015943  0.84322515  0.48718507     0.40000
H2610       H  0.32220687  0.86237169  0.45892678     0.34900
C2611       C  0.43513097  0.59562560  0.97287266    -0.26800
C2612       C  0.45489148  0.58828941  0.99611265    -0.14900
C2613       C  0.33871502  0.61115462  0.01343178     0.35700
C2614       C  0.32862925  0.64217782  0.00870078    -0.26300
C2615       C  0.43753316  0.65073935  0.98489698    -0.15500
C2616       C  0.42628733  0.62646744  0.96698334     0.36800
N2617       N  0.40605974  0.63310389  0.94274547    -0.89800
H2618       H  0.42689868  0.57709010  0.95892698     0.17900
H2619       H  0.33557130  0.66027035  0.02372549     0.17900
N2620       N  0.36143316  0.60349132  0.53827057    -0.88800
H2621       H  0.39999413  0.61262911  0.93191370     0.35300
H2622       H  0.38186702  0.64255802  0.95275545     0.40400
H2623       H  0.38659972  0.59529598  0.52922100     0.40000
H2624       H  0.36548651  0.62323040  0.55104656     0.34900
O2625       O  0.58276482  0.44887083  0.01292159    -0.72300
O2626       O  0.56373230  0.03500323  0.50207361    -0.72500
O2627       O  0.57671916  0.48506353  0.46370667    -0.72400
O2628       O  0.57681433  0.99975861  0.05036149    -0.72400
O2629       O  0.50933133  0.00363740  0.04061685    -0.72300
O2630       O  0.50612028  0.50249344  0.45502909    -0.72400
O2631       O  0.49484167  0.04588679  0.49719611    -0.72300
O2632       O  0.51371240  0.45896443  0.99876135    -0.72500
V2633       V  0.57419758  0.49175054  0.00673211     1.35200
V2634       V  0.50410063  0.00222742  0.49774375     1.35200
C2635       C  0.48916627  0.43963102  0.00815880     0.76900
C2636       C  0.58808110  0.05528760  0.49865207     0.77000
C2637       C  0.60357398  0.49155571  0.44394341     0.76900
C2638       C  0.48099044  0.00259479  0.05965646     0.76800
C2639       C  0.55315504  0.18343325  0.47603980     0.79700
N2640       N  0.54993787  0.20587192  0.49785876    -0.78600
C2641       C  0.54419112  0.23605363  0.49012724     0.82200
N2642       N  0.54203819  0.24375598  0.46040675    -0.77500
C2643       C  0.54567505  0.22149265  0.43845320     0.82200
N2644       N  0.55132943  0.19164023  0.44659987    -0.80300
C2645       C  0.52817825  0.31213930  0.02849157     0.79700
N2646       N  0.53356222  0.29005537  0.00636559    -0.78600
C2647       C  0.54225377  0.26045196  0.01363277     0.82200
N2648       N  0.54568604  0.25310004  0.04314407    -0.78500
C2649       C  0.54060426  0.27520974  0.06522325     0.82200
N2650       N  0.53182924  0.30454010  0.05774607    -0.80300
O2651       O  0.64528059  0.25408642  0.30021723    -0.72300
O2652       O  0.64487796  0.25972372  0.21399578    -0.72500
O2653       O  0.63422377  0.21344811  0.25599920    -0.72400
O2654       O  0.65611909  0.30018944  0.25771585    -0.72400
O2655       O  0.58709636  0.28902976  0.25196454    -0.72300
O2656       O  0.56504790  0.20379003  0.24147088    -0.72400
O2657       O  0.57724500  0.25343162  0.20405770    -0.72300
O2658       O  0.57488004  0.23917200  0.28937122    -0.72500
V2659       V  0.64605780  0.25666374  0.25686111     1.35200
V2660       V  0.57510797  0.24660719  0.24691923     1.35200
C2661       C  0.54766473  0.24529801  0.30851654     0.76900
C2662       C  0.54878726  0.25789762  0.19351901     0.77000
C2663       C  0.53328122  0.19425720  0.24709198     0.76900
C2664       C  0.56314751  0.30942451  0.25425437     0.76800
C2665       C  0.62417044  0.06590076  0.22386779     0.79700
N2666       N  0.61893596  0.04345877  0.24614875    -0.78600
C2667       C  0.61261689  0.01340455  0.23881223     0.82200
N2668       N  0.61132902  0.00591711  0.20905848    -0.78500
C2669       C  0.61608704  0.02831066  0.18673570     0.82200
N2670       N  0.62272513  0.05812251  0.19430095    -0.80300
C2671       C  0.59330796  0.43846435  0.27645988     0.79700
N2672       N  0.59656433  0.46125687  0.25450782    -0.78600
C2673       C  0.60158889  0.49148358  0.26214894     0.82200
N2674       N  0.60313375  0.49884341  0.29196374    -0.78500
C2675       C  0.59935193  0.47616280  0.31404387     0.82200
N2676       N  0.59431444  0.44630631  0.30596958    -0.80300
C2677       C  0.59192534  0.34998589  0.28097913    -0.26800
C2678       C  0.57198274  0.34247311  0.25797596    -0.14900
C2679       C  0.56088919  0.36635502  0.23946065     0.35700
C2680       C  0.56939408  0.39759188  0.24497737    -0.26300
C2681       C  0.58818307  0.40527188  0.26893469    -0.15500
C2682       C  0.60014248  0.38101691  0.28676447     0.36800
N2683       N  0.49522611  0.38458129  0.31415811    -0.89800
H2684       H  0.47317844  0.32900168  0.29797983     0.17900
H2685       H  0.56028990  0.41603731  0.23121134     0.17900
N2686       N  0.67019505  0.35852594  0.21631444    -0.88800
H2687       H  0.50025914  0.36388139  0.32539822     0.35300
H2688       H  0.51992279  0.39374902  0.30443479     0.40400
H2689       H  0.64481909  0.35024941  0.22521773     0.40000
H2690       H  0.66662500  0.37870843  0.20368354     0.34900
C2691       C  0.52581530  0.11598231  0.21003349    -0.26800
C2692       C  0.63253074  0.09849492  0.23109004    -0.14900
C2693       C  0.61433446  0.11417416  0.25680125     0.35700
C2694       C  0.62325106  0.14544749  0.26181365    -0.26300
C2695       C  0.52409436  0.16130639  0.24262201    -0.15500
C2696       C  0.53838753  0.14583751  0.21548119     0.36800
N2697       N  0.56420259  0.16109120  0.19274904    -0.89800
H2698       H  0.53586607  0.10491554  0.18863900     0.17900
H2699       H  0.60915603  0.15764073  0.28132124     0.17900
N2700       N  0.58650851  0.09859115  0.27728234    -0.88800
H2701       H  0.57009114  0.14731141  0.17319426     0.35300
H2702       H  0.58779701  0.16294594  0.20191627     0.40400
H2703       H  0.56608286  0.09347655  0.26478027     0.40000
H2704       H  0.57573474  0.11345936  0.29493558     0.34900
C2705       C  0.65306136  0.24200715  0.14767358    -0.26800
C2706       C  0.54890466  0.26161134  0.16032308    -0.14900
C2707       C  0.56853441  0.28557783  0.14280571     0.35700
C2708       C  0.56613864  0.28856639  0.11155656    -0.26300
C2709       C  0.54505457  0.26826562  0.09721821    -0.15500
C2710       C  0.65157613  0.24467204  0.11622032     0.36800
N2711       N  0.63020106  0.22280335  0.10273066    -0.89800
H2712       H  0.63814077  0.22350459  0.16093511     0.17900
H2713       H  0.58061083  0.30727704  0.09840089     0.17900
N2714       N  0.59024209  0.30782555  0.15580320    -0.88800
H2715       H  0.61152119  0.23507703  0.09243353     0.35300
H2716       H  0.64661939  0.21062285  0.08571142     0.40400
H2717       H  0.57967898  0.32994552  0.15314838     0.40000
H2718       H  0.46292174  0.30509834  0.18053439     0.34900
C2719       C  0.52866203  0.25988648  0.36337344    -0.26800
C2720       C  0.54743666  0.23977567  0.34174121    -0.14900
C2721       C  0.56522167  0.21394781  0.35209472     0.35700
C2722       C  0.56406587  0.20892929  0.38364007    -0.26300
C2723       C  0.54573080  0.22906604  0.40545985    -0.15500
C2724       C  0.52779307  0.25495370  0.39519911     0.36800
N2725       N  0.63070714  0.27313445  0.41883006    -0.89800
H2726       H  0.63693193  0.27672331  0.35727073     0.17900
H2727       H  0.57808906  0.18910954  0.39116273     0.17900
N2728       N  0.58325951  0.19206435  0.33066715    -0.88800
H2729       H  0.61761755  0.28993426  0.40748658     0.35300
H2730       H  0.61096727  0.25926338  0.43157339     0.40400
H2731       H  0.60671964  0.20273216  0.31997907     0.40000
H2732       H  0.47125253  0.17402973  0.34323592     0.34900
C2733       C  0.49614275  0.99521620  0.14279468    -0.26800
C2734       C  0.61250242  0.02079680  0.15461349    -0.14900
C2735       C  0.59317845  0.04046927  0.13750015     0.35700
C2736       C  0.59074673  0.03337336  0.10692312    -0.26300
C2737       C  0.60739689  0.00710980  0.09291554    -0.15500
C2738       C  0.49975269  0.48566133  0.11054425     0.36800
N2739       N  0.51519177  0.45724408  0.09773637    -0.89800
H2740       H  0.51869757  0.47743127  0.15344530     0.17900
H2741       H  0.57621923  0.04872843  0.09372607     0.17900
N2742       N  0.57525966  0.06717707  0.15156998    -0.88800
H2743       H  0.54276080  0.45928846  0.09601781     0.35300
H2744       H  0.50954789  0.45341402  0.07565090     0.40400
H2745       H  0.55584087  0.05861578  0.16907129     0.40000
H2746       H  0.56189854  0.07908555  0.13604258     0.34900
C2747       C  0.50054288  0.50714666  0.39056659    -0.26800
C2748       C  0.60223071  0.48825380  0.41064812    -0.14900
C2749       C  0.57947672  0.46612255  0.40021482     0.35700
C2750       C  0.57824206  0.46386809  0.36873371    -0.26300
C2751       C  0.59951681  0.48287745  0.34701709    -0.15500
C2752       C  0.50075413  0.50379540  0.35873086     0.36800
N2753       N  0.52530333  0.52163933  0.33711040    -0.89800
H2754       H  0.51852223  0.52372587  0.39854512     0.17900
H2755       H  0.56078180  0.44663454  0.36103487     0.17900
N2756       N  0.55862891  0.44512488  0.42150845    -0.88800
H2757       H  0.54214527  0.53492349  0.34853690     0.35300
H2758       H  0.51054497  0.53757653  0.32631138     0.40400
H2759       H  0.57645616  0.43050158  0.43040979     0.40000
H2760       H  0.54264410  0.43077174  0.41024489     0.34900
C2761       C  0.61529732  0.35799956  0.04229162    -0.26800
C2762       C  0.51728190  0.34408860  0.02157445    -0.14900
C2763       C  0.53420673  0.36121476  0.99587676     0.35700
C2764       C  0.52409361  0.39225546  0.99168187    -0.26300
C2765       C  0.49709763  0.40629327  0.01229993    -0.15500
C2766       C  0.60450040  0.38854194  0.03714534     0.36800
N2767       N  0.57732765  0.40278671  0.05884480    -0.89800
H2768       H  0.60246360  0.34521808  0.06229584     0.17900
H2769       H  0.53755229  0.40567965  0.97239869     0.17900
N2770       N  0.56210822  0.34737745  0.97462867    -0.88800
H2771       H  0.56909762  0.38776320  0.07747138     0.35300
H2772       H  0.55513559  0.40595213  0.04799774     0.40400
H2773       H  0.58304987  0.34236035  0.98655612     0.40000
H2774       H  0.44715012  0.36212079  0.95570405     0.34900
C2775       C  0.55876902  0.09518755  0.47132020    -0.26800
C2776       C  0.57923043  0.08821356  0.49418750    -0.14900
C2777       C  0.46290613  0.11127607  0.51332868     0.35700
C2778       C  0.45278367  0.14221124  0.50823036    -0.26300
C2779       C  0.55992182  0.15037813  0.48347694    -0.15500
C2780       C  0.54901570  0.12587261  0.46565833     0.36800
N2781       N  0.52823318  0.13212290  0.44172254    -0.89800
H2782       H  0.55068256  0.07649025  0.45748859     0.17900
H2783       H  0.45996005  0.16053102  0.52290054     0.17900
N2784       N  0.48637644  0.10406387  0.03837215    -0.88800
H2785       H  0.52228825  0.11151128  0.43105850     0.35300
H2786       H  0.50401882  0.14132733  0.45197005     0.40400
H2787       H  0.51131373  0.09561053  0.02899781     0.40000
H2788       H  0.49098750  0.12414303  0.05045684     0.34900
O2789       O  0.58653948  0.44965735  0.51247588    -0.72300
O2790       O  0.56634987  0.03533003  0.00195185    -0.72500
O2791       O  0.57298907  0.48474516  0.96435896    -0.72400
O2792       O  0.57477661  0.99940383  0.55029953    -0.72400
O2793       O  0.50680518  0.00413723  0.54038000    -0.72300
O2794       O  0.50258624  0.50200778  0.95610086    -0.72400
O2795       O  0.49779445  0.04579826  0.99765702    -0.72300
O2796       O  0.51715134  0.45972628  0.49782564    -0.72500
V2797       V  0.57778654  0.49245916  0.50595999     1.35200
V2798       V  0.50685386  0.00208430  0.99792282     1.35200
C2799       C  0.49250814  0.44043556  0.50709612     0.76900
C2800       C  0.59086664  0.05548713  0.99882530     0.77000
C2801       C  0.59976084  0.49152634  0.94458415     0.76900
C2802       C  0.47854589  0.00339677  0.55954099     0.76800
C2803       C  0.55838243  0.18409514  0.97537231     0.79700
N2804       N  0.55389799  0.20633470  0.99738669    -0.78600
C2805       C  0.54759780  0.23643872  0.98975007     0.82200
N2806       N  0.54613872  0.24424562  0.95992413    -0.77500
C2807       C  0.55106317  0.22219260  0.93775767     0.82200
N2808       N  0.55723688  0.19240393  0.94582885    -0.80300
C2809       C  0.52944579  0.31261506  0.52793332     0.79700
N2810       N  0.53316511  0.29018332  0.50614882    -0.78600
C2811       C  0.54063308  0.26036128  0.51368672     0.82200
N2812       N  0.54451425  0.25312704  0.54312969    -0.78500
C2813       C  0.54107919  0.27560411  0.56487834     0.82200
N2814       N  0.53348375  0.30515670  0.55712264    -0.80300
O2815       O  0.64847694  0.25277696  0.80015894    -0.72300
O2816       O  0.64641751  0.25883268  0.71425992    -0.72500
O2817       O  0.63677794  0.21241749  0.75593003    -0.72400
O2818       O  0.65807832  0.29904344  0.75806885    -0.72400
O2819       O  0.58963994  0.29000526  0.75167983    -0.72300
O2820       O  0.56856590  0.20479621  0.73973904    -0.72400
O2821       O  0.57953544  0.25522626  0.70326815    -0.72300
O2822       O  0.57867817  0.23940445  0.78822195    -0.72500
V2823       V  0.64838179  0.25556430  0.75696535     1.35200
V2824       V  0.57818655  0.24758332  0.74593946     1.35200
C2825       C  0.55187128  0.24567784  0.80776727     0.76900
C2826       C  0.55074127  0.25906091  0.69309518     0.77000
C2827       C  0.53699114  0.19487855  0.74602886     0.76900
C2828       C  0.56542016  0.31014899  0.75408980     0.76800
C2829       C  0.62439773  0.06575240  0.72316304     0.79700
N2830       N  0.61912222  0.04344564  0.74554258    -0.78600
C2831       C  0.61244578  0.01344081  0.73841204     0.82200
N2832       N  0.61078130  0.00587301  0.70869719    -0.78500
C2833       C  0.61560362  0.02818811  0.68624522     0.82200
N2834       N  0.62269855  0.05794283  0.69365653    -0.80300
C2835       C  0.59332640  0.43946093  0.77644506     0.79700
N2836       N  0.59664277  0.46217711  0.75441531    -0.78600
C2837       C  0.60065029  0.49253269  0.76209569     0.82200
N2838       N  0.60115847  0.50009447  0.79205124    -0.78500
C2839       C  0.59729973  0.47744835  0.81419220     0.82200
N2840       N  0.59323237  0.44747516  0.80606594    -0.80300
C2841       C  0.59281765  0.35103590  0.78147283    -0.26800
C2842       C  0.57373370  0.34323594  0.75797023    -0.14900
C2843       C  0.56304492  0.36687124  0.73898294     0.35700
C2844       C  0.57112339  0.39818890  0.74446921    -0.26300
C2845       C  0.58899216  0.40618685  0.76891033    -0.15500
C2846       C  0.60053337  0.38217457  0.78727477     0.36800
N2847       N  0.49672442  0.38579617  0.81457641    -0.89800
H2848       H  0.47641265  0.32958840  0.79813323     0.17900
H2849       H  0.56232528  0.41644975  0.73031355     0.17900
N2850       N  0.66963593  0.35733885  0.71734529    -0.88800
H2851       H  0.50235083  0.36524374  0.82577650     0.35300
H2852       H  0.52115849  0.39562914  0.80506966     0.40400
H2853       H  0.64482646  0.34802414  0.72646031     0.40000
H2854       H  0.66473648  0.37753954  0.70525774     0.34900
C2855       C  0.52872720  0.11708090  0.70826956    -0.26800
C2856       C  0.63330315  0.09816385  0.73025804    -0.14900
C2857       C  0.61494514  0.11417908  0.75563902     0.35700
C2858       C  0.62449353  0.14523572  0.76070453    -0.26300
C2859       C  0.52798048  0.16193926  0.74135869    -0.15500
C2860       C  0.54128422  0.14696376  0.71368396     0.36800
N2861       N  0.56604189  0.16273101  0.69046728    -0.89800
H2862       H  0.53780882  0.10649315  0.68645716     0.17900
H2863       H  0.61020160  0.15771713  0.77993047     0.17900
N2864       N  0.58638783  0.09912123  0.77576428    -0.88800
H2865       H  0.57129291  0.14924386  0.67065809     0.35300
H2866       H  0.59013434  0.16471057  0.69883368     0.40400
H2867       H  0.56635609  0.09405433  0.76283895     0.40000
H2868       H  0.57536972  0.11429408  0.79305638     0.34900
C2869       C  0.65293505  0.24138881  0.64808705    -0.26800
C2870       C  0.55025131  0.26277277  0.65994758    -0.14900
C2871       C  0.57015485  0.28631630  0.64198821     0.35700
C2872       C  0.56745201  0.28900814  0.61077017    -0.26300
C2873       C  0.54583920  0.26881718  0.59685008    -0.15500
C2874       C  0.65098612  0.24393363  0.61669178     0.36800
N2875       N  0.62922095  0.22210627  0.60357106    -0.89800
H2876       H  0.63793108  0.22309603  0.66160562     0.17900
H2877       H  0.58213434  0.30740281  0.59728579     0.17900
N2878       N  0.59250398  0.30840915  0.65446485    -0.88800
H2879       H  0.61052700  0.23441796  0.59333852     0.35300
H2880       H  0.64536729  0.20972298  0.58653166     0.40400
H2881       H  0.58252195  0.33067127  0.65137369     0.40000
H2882       H  0.46472730  0.30469459  0.67945028     0.34900
C2883       C  0.53386930  0.26056581  0.86265649    -0.26800
C2884       C  0.55233453  0.24033842  0.84096593    -0.14900
C2885       C  0.57027385  0.21457430  0.85128223     0.35700
C2886       C  0.56953879  0.20974396  0.88283299    -0.26300
C2887       C  0.55125225  0.22986487  0.90471655    -0.15500
C2888       C  0.53321673  0.25571307  0.89446895     0.36800
N2889       N  0.63464102  0.27248368  0.91806371    -0.89800
H2890       H  0.63988845  0.27508846  0.85661677     0.17900
H2891       H  0.58364606  0.18995696  0.89031246     0.17900
N2892       N  0.58778719  0.19242592  0.82986399    -0.88800
H2893       H  0.62061862  0.28854346  0.90668058     0.35300
H2894       H  0.61567384  0.25818033  0.93119928     0.40400
H2895       H  0.61108838  0.20290930  0.81866547     0.40000
H2896       H  0.47940179  0.17550091  0.84281112     0.34900
C2897       C  0.49211587  0.99427512  0.64290648    -0.26800
C2898       C  0.61174846  0.02072778  0.65411615    -0.14900
C2899       C  0.59306348  0.04088273  0.63688631     0.35700
C2900       C  0.59017306  0.03378982  0.60641294    -0.26300
C2901       C  0.60584974  0.00710804  0.59254051    -0.15500
C2902       C  0.50224755  0.48681742  0.60994200     0.36800
N2903       N  0.51911956  0.45894186  0.59718275    -0.89800
H2904       H  0.51906426  0.47836885  0.65373177     0.17900
H2905       H  0.57605135  0.04946911  0.59318698     0.17900
N2906       N  0.57616807  0.06809173  0.65076082    -0.88800
H2907       H  0.54647336  0.46155405  0.59670166     0.35300
H2908       H  0.51496135  0.45541794  0.57461983     0.40400
H2909       H  0.55665668  0.06000642  0.66839965     0.40000
H2910       H  0.56303415  0.08024887  0.63523464     0.34900
C2911       C  0.49629605  0.50831078  0.89174359    -0.26800
C2912       C  0.59839172  0.48883085  0.91116085    -0.14900
C2913       C  0.57491193  0.46762092  0.90028379     0.35700
C2914       C  0.57409003  0.46578909  0.86866919    -0.26300
C2915       C  0.59652245  0.48424337  0.84726450    -0.15500
C2916       C  0.49663702  0.50540130  0.85981036     0.36800
N2917       N  0.52071600  0.52398717  0.83850067    -0.89800
H2918       H  0.51394294  0.52499432  0.90001328     0.17900
H2919       H  0.55619967  0.44918627  0.86057970     0.17900
N2920       N  0.55295133  0.44703913  0.92122703    -0.88800
H2921       H  0.53700171  0.53759964  0.85018089     0.35300
H2922       H  0.50550034  0.53960304  0.82777884     0.40400
H2923       H  0.56997351  0.43165823  0.93018816     0.40000
H2924       H  0.53655691  0.43342994  0.90964913     0.34900
C2925       C  0.61870419  0.35916919  0.54291952    -0.26800
C2926       C  0.51927170  0.34467547  0.52086820    -0.14900
C2927       C  0.53659408  0.36153644  0.49515871     0.35700
C2928       C  0.52703192  0.39271233  0.49084765    -0.26300
C2929       C  0.50017041  0.40706876  0.51135025    -0.15500
C2930       C  0.60842031  0.38982942  0.53763733     0.36800
N2931       N  0.58164763  0.40452728  0.55936557    -0.89800
H2932       H  0.60585501  0.34671287  0.56313337     0.17900
H2933       H  0.54074178  0.40595360  0.47156472     0.17900
N2934       N  0.56431100  0.34727873  0.47404327    -0.88800
H2935       H  0.57362528  0.38985284  0.57830914     0.35300
H2936       H  0.55924062  0.40750110  0.54873616     0.40400
H2937       H  0.58516312  0.34214169  0.48604998     0.40000
H2938       H  0.44665741  0.36045190  0.45639516     0.34900
C2939       C  0.56194560  0.09572156  0.97151566    -0.26800
C2940       C  0.58253028  0.08853500  0.99424546    -0.14900
C2941       C  0.46764800  0.11165667  0.01341729     0.35700
C2942       C  0.45812909  0.14274180  0.00811261    -0.26300
C2943       C  0.56485230  0.15100717  0.98288841    -0.15500
C2944       C  0.55305085  0.12656742  0.96550988     0.36800
N2945       N  0.53218603  0.13305558  0.94168713    -0.89800
H2946       H  0.55313298  0.07706933  0.95802427     0.17900
H2947       H  0.46632250  0.16113286  0.02221059     0.17900
N2948       N  0.48065729  0.10364464  0.53887532    -0.88800
H2949       H  0.52541663  0.11246617  0.93142011     0.35300
H2950       H  0.50837921  0.14297545  0.95194761     0.40400
H2951       H  0.50613379  0.09595236  0.53007149     0.40000
H2952       H  0.48397631  0.12356278  0.55163845     0.34900
O2953       O  0.58574028  0.94997290  0.01402266    -0.72300
O2954       O  0.56677200  0.53477179  0.50003851    -0.72500
O2955       O  0.57338226  0.98557520  0.46531487    -0.72400
O2956       O  0.57370289  0.49864978  0.04935286    -0.72400
O2957       O  0.50637957  0.50314068  0.04174695    -0.72300
O2958       O  0.50350663  0.00092342  0.45459656    -0.72400
O2959       O  0.49802780  0.54695867  0.49826626    -0.72300
O2960       O  0.51752932  0.95873973  0.99816227    -0.72500
V2961       V  0.57710884  0.99286819  0.00770869     1.35200
V2962       V  0.50681685  0.50315085  0.49811763     1.35200
C2963       C  0.49297512  0.93933118  0.00723862     0.76900
C2964       C  0.59112809  0.55504006  0.49698189     0.77000
C2965       C  0.60012833  0.99212959  0.44544060     0.76900
C2966       C  0.47836936  0.50216395  0.06117452     0.76800
C2967       C  0.55780088  0.68387091  0.47664118     0.79700
N2968       N  0.55337414  0.70602989  0.49876491    -0.78600
C2969       C  0.54839124  0.73638633  0.49103587     0.82200
N2970       N  0.54823902  0.74449367  0.46107892    -0.77500
C2971       C  0.55322814  0.72248637  0.43890714     0.82200
N2972       N  0.55805638  0.69250970  0.44701603    -0.80300
C2973       C  0.52944843  0.81160539  0.02954446     0.79700
N2974       N  0.53328872  0.78927981  0.00765387    -0.78600
C2975       C  0.54040105  0.75935737  0.01512423     0.82200
N2976       N  0.54386760  0.75191824  0.04461841    -0.78500
C2977       C  0.54028294  0.77427012  0.06650723     0.82200
N2978       N  0.53302904  0.80392805  0.05878711    -0.80300
O2979       O  0.65128042  0.75454150  0.29958085    -0.72300
O2980       O  0.64895913  0.75786502  0.21368959    -0.72500
O2981       O  0.63974435  0.71263685  0.25678132    -0.72400
O2982       O  0.66054051  0.79946359  0.25618323    -0.72400
O2983       O  0.59154857  0.78751422  0.25200750    -0.72300
O2984       O  0.57066015  0.70225175  0.24126157    -0.72400
O2985       O  0.58098783  0.75211345  0.20411526    -0.72300
O2986       O  0.58114338  0.73746851  0.28917622    -0.72500
V2987       V  0.65106958  0.75589384  0.25641570     1.35200
V2988       V  0.58010748  0.74504081  0.24686230     1.35200
C2989       C  0.55427157  0.74331535  0.30880397     0.76900
C2990       C  0.55205672  0.75627679  0.19422801     0.77000
C2991       C  0.53910666  0.69221079  0.24684276     0.76900
C2992       C  0.56719117  0.80751112  0.25516803     0.76800
C2993       C  0.61849276  0.56841469  0.22333420     0.79700
N2994       N  0.61364802  0.54575036  0.24539351    -0.78600
C2995       C  0.60584389  0.51603410  0.23819787     0.82200
N2996       N  0.60308331  0.50895882  0.20861512    -0.78500
C2997       C  0.60747405  0.53149280  0.18635708     0.82200
N2998       N  0.61531713  0.56108223  0.19393349    -0.80300
C2999       C  0.59611438  0.93654297  0.27787893     0.79700
N3000       N  0.60158854  0.95892170  0.25553419    -0.78600
C3001       C  0.60663961  0.98918573  0.26300238     0.82200
N3002       N  0.60592463  0.99699028  0.29297475    -0.78500
C3003       C  0.59997082  0.97476599  0.31541268     0.82200
N3004       N  0.59498240  0.94480671  0.30758036    -0.80300
C3005       C  0.59504439  0.84812984  0.28250567    -0.26800
C3006       C  0.57552756  0.84055445  0.25921993    -0.14900
C3007       C  0.56439993  0.86436298  0.24067231     0.35700
C3008       C  0.57265769  0.89561702  0.24628174    -0.26300
C3009       C  0.59105673  0.90335843  0.27046587    -0.15500
C3010       C  0.60275819  0.87921507  0.28853502     0.36800
N3011       N  0.49696209  0.88798409  0.31220763    -0.89800
H3012       H  0.47961667  0.83093229  0.29586771     0.17900
H3013       H  0.56368054  0.91403327  0.23240790     0.17900
N3014       N  0.67131834  0.85736484  0.21532080    -0.88800
H3015       H  0.50430871  0.86775092  0.32298398     0.35300
H3016       H  0.52050810  0.89911239  0.30237167     0.40400
H3017       H  0.64660863  0.84779641  0.22439618     0.40000
H3018       H  0.66617012  0.87737484  0.20305625     0.34900
C3019       C  0.53931599  0.61212193  0.21150386    -0.26800
C3020       C  0.62997947  0.60026256  0.23058308    -0.14900
C3021       C  0.61794083  0.61450529  0.25905876     0.35700
C3022       C  0.63011226  0.64467316  0.26455773    -0.26300
C3023       C  0.53071597  0.65917638  0.24175895    -0.15500
C3024       C  0.54901601  0.64294972  0.21643607     0.36800
N3025       N  0.57600026  0.65824296  0.19478270    -0.89800
H3026       H  0.55350295  0.59968254  0.19239196     0.17900
H3027       H  0.62014948  0.65600701  0.28593588     0.17900
N3028       N  0.59271859  0.59877428  0.28188825    -0.88800
H3029       H  0.58492513  0.64360424  0.17638307     0.35300
H3030       H  0.59788469  0.66220690  0.20578959     0.40400
H3031       H  0.56913067  0.59614919  0.27283480     0.40000
H3032       H  0.58668468  0.61246607  0.30149039     0.34900
C3033       C  0.65541221  0.74182390  0.14737891    -0.26800
C3034       C  0.55110630  0.76022835  0.16119022    -0.14900
C3035       C  0.56909225  0.78506411  0.14377082     0.35700
C3036       C  0.56570827  0.78829790  0.11274087    -0.26300
C3037       C  0.54523419  0.76736631  0.09845308    -0.15500
C3038       C  0.65342565  0.74497175  0.11604771     0.36800
N3039       N  0.63106976  0.72386555  0.10268961    -0.89800
H3040       H  0.64018131  0.72349074  0.16064128     0.17900
H3041       H  0.57905426  0.80764459  0.09967484     0.17900
N3042       N  0.59014091  0.80790928  0.15668301    -0.88800
H3043       H  0.61267946  0.73678725  0.09266239     0.35300
H3044       H  0.64683650  0.71142042  0.08545812     0.40400
H3045       H  0.57832227  0.82962546  0.15477002     0.40000
H3046       H  0.47002023  0.80245750  0.18022632     0.34900
C3047       C  0.53529579  0.75868300  0.36335174    -0.26800
C3048       C  0.55524488  0.73894875  0.34203476    -0.14900
C3049       C  0.57520405  0.71475927  0.35280558     0.35700
C3050       C  0.57470578  0.71084888  0.38442238    -0.26300
C3051       C  0.55449273  0.73019412  0.40586776    -0.15500
C3052       C  0.53474835  0.75463487  0.39522197     0.36800
N3053       N  0.63811125  0.77660207  0.41706716    -0.89800
H3054       H  0.64537313  0.77945208  0.35549694     0.17900
H3055       H  0.59016061  0.69219858  0.39237419     0.17900
N3056       N  0.59432180  0.69303547  0.33186009    -0.88800
H3057       H  0.62660133  0.79411502  0.40529449     0.35300
H3058       H  0.61715528  0.76378738  0.42948828     0.40400
H3059       H  0.61663597  0.70459708  0.32018919     0.40000
H3060       H  0.47578540  0.67375626  0.34437534     0.34900
C3061       C  0.50346104  0.49282409  0.14093189    -0.26800
C3062       C  0.60539438  0.52361089  0.15385720    -0.14900
C3063       C  0.59312641  0.54528996  0.13365228     0.35700
C3064       C  0.59172432  0.53716227  0.10319947    -0.26300
C3065       C  0.60341410  0.50811548  0.09188127    -0.15500
C3066       C  0.49724387  0.98771814  0.11165342     0.36800
N3067       N  0.51391164  0.95908072  0.10075614    -0.89800
H3068       H  0.50834413  0.97956989  0.15747796     0.17900
H3069       H  0.58200353  0.55401507  0.08805147     0.17900
N3070       N  0.58167069  0.57561009  0.14384524    -0.88800
H3071       H  0.54090817  0.96095642  0.10238016     0.35300
H3072       H  0.51221980  0.95538380  0.07765590     0.40400
H3073       H  0.55539639  0.57832328  0.14020560     0.40000
H3074       H  0.59733060  0.59213213  0.13021322     0.34900
C3075       C  0.49651598  0.00694888  0.39023542    -0.26800
C3076       C  0.59892558  0.98874545  0.41215905    -0.14900
C3077       C  0.57611135  0.96678911  0.40152976     0.35700
C3078       C  0.57585012  0.96406949  0.36991757    -0.26300
C3079       C  0.59846642  0.98220986  0.34836710    -0.15500
C3080       C  0.49559734  0.00457389  0.35844159     0.36800
N3081       N  0.51929630  0.02309806  0.33675362    -0.89800
H3082       H  0.51458563  0.02344080  0.39821860     0.17900
H3083       H  0.55841502  0.94695791  0.36199055     0.17900
N3084       N  0.55452872  0.94621773  0.42274059    -0.88800
H3085       H  0.53631759  0.03631471  0.34805848     0.35300
H3086       H  0.50388816  0.03905595  0.32664821     0.40400
H3087       H  0.57191292  0.93155878  0.43215538     0.40000
H3088       H  0.53873834  0.93185701  0.41129397     0.34900
C3089       C  0.61900122  0.85913904  0.04314706    -0.26800
C3090       C  0.51985815  0.84383967  0.02243872    -0.14900
C3091       C  0.53726692  0.86039107  0.99654461     0.35700
C3092       C  0.52771271  0.89149080  0.99177651    -0.26300
C3093       C  0.50091058  0.90612953  0.01210248    -0.15500
C3094       C  0.60803373  0.88965932  0.03811264     0.36800
N3095       N  0.58105349  0.90386179  0.06002326    -0.89800
H3096       H  0.60644726  0.84630474  0.06326292     0.17900
H3097       H  0.54131810  0.90442036  0.97223298     0.17900
N3098       N  0.56502093  0.84588361  0.97566756    -0.88800
H3099       H  0.57316033  0.88886019  0.07873454     0.35300
H3100       H  0.55864863  0.90687065  0.04940940     0.40400
H3101       H  0.58574686  0.84077833  0.98782627     0.40000
H3102       H  0.44890917  0.86261857  0.95676069     0.34900
C3103       C  0.56252442  0.59578705  0.47010022    -0.26800
C3104       C  0.58236960  0.58806505  0.49318779    -0.14900
C3105       C  0.46809278  0.61298436  0.51379304     0.35700
C3106       C  0.45843998  0.64404686  0.50857462    -0.26300
C3107       C  0.56348692  0.65058614  0.48386508    -0.15500
C3108       C  0.55301738  0.62668200  0.46509984     0.36800
N3109       N  0.53301047  0.63379780  0.44082339    -0.89800
H3110       H  0.55477008  0.57753993  0.45558454     0.17900
H3111       H  0.46667258  0.66244427  0.52264476     0.17900
N3112       N  0.48400210  0.60455936  0.03968411    -0.88800
H3113       H  0.52745721  0.61357675  0.42934322     0.35300
H3114       H  0.50857596  0.64275539  0.45087113     0.40400
H3115       H  0.50879841  0.59576574  0.03037065     0.40000
H3116       H  0.48892324  0.62470365  0.05154751     0.34900
O3117       O  0.58371558  0.94980283  0.51373521    -0.72300
O3118       O  0.56339811  0.53413049  0.00112957    -0.72500
O3119       O  0.57576448  0.98563525  0.96537314    -0.72400
O3120       O  0.57711201  0.49971314  0.54849324    -0.72400
O3121       O  0.50973600  0.50409846  0.54067662    -0.72300
O3122       O  0.50650253  0.00106826  0.95471678    -0.72400
O3123       O  0.49467308  0.54609294  0.99956252    -0.72300
O3124       O  0.51490215  0.95890457  0.49817547    -0.72500
V3125       V  0.57486618  0.99264559  0.50762880     1.35200
V3126       V  0.50339268  0.50235381  0.99922061     1.35200
C3127       C  0.49048146  0.93947854  0.50764495     0.76900
C3128       C  0.58783855  0.55430747  0.99819485     0.77000
C3129       C  0.60248440  0.99229433  0.94551163     0.76900
C3130       C  0.48165666  0.50302606  0.56001733     0.76800
C3131       C  0.55329349  0.68269213  0.97689707     0.79700
N3132       N  0.54956116  0.70490537  0.99896372    -0.78600
C3133       C  0.54435014  0.73524225  0.99134973     0.82200
N3134       N  0.54321165  0.74331189  0.96152102    -0.77500
C3135       C  0.54740008  0.72124626  0.93938373     0.82200
N3136       N  0.55255712  0.69129915  0.94740203    -0.80300
C3137       C  0.52948498  0.81226065  0.52948355     0.79700
N3138       N  0.53468939  0.79005178  0.50748013    -0.78600
C3139       C  0.54314978  0.76042840  0.51487054     0.82200
N3140       N  0.54653475  0.75315893  0.54439663    -0.78500
C3141       C  0.54163584  0.77538897  0.56636456     0.82200
N3142       N  0.53309246  0.80474443  0.55876113    -0.80300
O3143       O  0.64786308  0.75492902  0.80028358    -0.72300
O3144       O  0.64612372  0.75937836  0.71423352    -0.72500
O3145       O  0.63624559  0.71386605  0.75691074    -0.72400
O3146       O  0.65776564  0.80047302  0.75715703    -0.72400
O3147       O  0.58841108  0.78793837  0.75344131    -0.72300
O3148       O  0.56684713  0.70313584  0.74141295    -0.72400
O3149       O  0.57866847  0.75331663  0.70492056    -0.72300
O3150       O  0.57643961  0.73756133  0.79003503    -0.72500
V3151       V  0.64796407  0.75696442  0.75701741     1.35200
V3152       V  0.57661633  0.74570940  0.74766948     1.35200
C3153       C  0.54924504  0.74348388  0.80929249     0.76900
C3154       C  0.55014321  0.75778531  0.69449234     0.77000
C3155       C  0.53517648  0.69336722  0.74651129     0.76900
C3156       C  0.56438388  0.80822353  0.75598874     0.76800
C3157       C  0.61608380  0.56957953  0.72334963     0.79700
N3158       N  0.61149819  0.54692279  0.74539755    -0.78600
C3159       C  0.60472166  0.51703188  0.73806724     0.82200
N3160       N  0.60279091  0.50980284  0.70833321    -0.78500
C3161       C  0.60683185  0.53242703  0.68614036     0.82200
N3162       N  0.61360795  0.56217647  0.69385417    -0.80300
C3163       C  0.59630573  0.93676561  0.77777973     0.79700
N3164       N  0.60136668  0.95912970  0.75543900    -0.78600
C3165       C  0.60681720  0.98934029  0.76277806     0.82200
N3166       N  0.60694282  0.99713157  0.79271168    -0.78500
C3167       C  0.60138969  0.97487813  0.81521088     0.82200
N3168       N  0.59597346  0.94498980  0.80739791    -0.80300
C3169       C  0.59283676  0.84847140  0.78318038    -0.26800
C3170       C  0.57320842  0.84115621  0.75991590    -0.14900
C3171       C  0.56297757  0.86504172  0.74096960     0.35700
C3172       C  0.57214126  0.89615242  0.74626176    -0.26300
C3173       C  0.59060826  0.90366251  0.77048250    -0.15500
C3174       C  0.60155309  0.87939092  0.78882910     0.36800
N3175       N  0.49813798  0.88769281  0.81201615    -0.89800
H3176       H  0.47799896  0.83132092  0.79629744     0.17900
H3177       H  0.56377063  0.91465368  0.73214329     0.17900
N3178       N  0.66782745  0.85828493  0.71616895    -0.88800
H3179       H  0.50496770  0.86720443  0.82267458     0.35300
H3180       H  0.52192782  0.89822214  0.80193717     0.40400
H3181       H  0.64331338  0.84866137  0.72569276     0.40000
H3182       H  0.66227747  0.87831664  0.70411812     0.34900
C3183       C  0.53558685  0.61332504  0.71117305    -0.26800
C3184       C  0.62707908  0.60142140  0.73063948    -0.14900
C3185       C  0.61291746  0.61632006  0.75822335     0.35700
C3186       C  0.62470028  0.64656027  0.76378469    -0.26300
C3187       C  0.52662367  0.66043717  0.74124388    -0.15500
C3188       C  0.54513906  0.64419210  0.71604556     0.36800
N3189       N  0.57237643  0.65942343  0.69457777    -0.89800
H3190       H  0.55002208  0.60087216  0.69219566     0.17900
H3191       H  0.61311861  0.65845093  0.78439733     0.17900
N3192       N  0.58618818  0.60107214  0.78010612    -0.88800
H3193       H  0.58123267  0.64485215  0.67610717     0.35300
H3194       H  0.59425315  0.66305762  0.70570114     0.40400
H3195       H  0.56372397  0.59787912  0.76959437     0.40000
H3196       H  0.57848959  0.61533985  0.79905529     0.34900
C3197       C  0.65393208  0.74134051  0.64775106    -0.26800
C3198       C  0.55008118  0.76173940  0.66138049    -0.14900
C3199       C  0.56917359  0.78608277  0.64403611     0.35700
C3200       C  0.56673875  0.78912537  0.61280062    -0.26300
C3201       C  0.54604895  0.76854164  0.59836571    -0.15500
C3202       C  0.65211152  0.74414284  0.61634148     0.36800
N3203       N  0.63098733  0.72206492  0.60285357    -0.89800
H3204       H  0.63945474  0.72258690  0.66098155     0.17900
H3205       H  0.58084063  0.80809552  0.59973123     0.17900
N3206       N  0.59034338  0.80863425  0.65721592    -0.88800
H3207       H  0.61195840  0.73414475  0.59280419     0.35300
H3208       H  0.64749263  0.71018451  0.58565866     0.40400
H3209       H  0.57925714  0.83057055  0.65472829     0.40000
H3210       H  0.46435361  0.80564358  0.68160420     0.34900
C3211       C  0.52900865  0.75779983  0.86403437    -0.26800
C3212       C  0.54930315  0.73842092  0.84257576    -0.14900
C3213       C  0.56907597  0.71402928  0.85321387     0.35700
C3214       C  0.56824657  0.70966499  0.88480341    -0.26300
C3215       C  0.54814757  0.72893591  0.90638457    -0.15500
C3216       C  0.52840346  0.75347421  0.89589688     0.36800
N3217       N  0.63489764  0.77458398  0.91858099    -0.89800
H3218       H  0.64125940  0.77828626  0.85707725     0.17900
H3219       H  0.58366570  0.69090734  0.89260298     0.17900
N3220       N  0.58869250  0.69275721  0.83208926    -0.88800
H3221       H  0.62266380  0.79194866  0.90720803     0.35300
H3222       H  0.61447031  0.76124470  0.93111602     0.40400
H3223       H  0.61130991  0.70452623  0.82120981     0.40000
H3224       H  0.46832879  0.67164462  0.84349101     0.34900
C3225       C  0.50415294  0.49362254  0.64079245    -0.26800
C3226       C  0.60592282  0.52458446  0.65351010    -0.14900
C3227       C  0.59073449  0.54491538  0.63387589     0.35700
C3228       C  0.59051633  0.53694633  0.60321170    -0.26300
C3229       C  0.60641361  0.50955955  0.59112337    -0.15500
C3230       C  0.49198816  0.98677439  0.61191271     0.36800
N3231       N  0.50445691  0.95655449  0.60147113    -0.89800
H3232       H  0.50191688  0.97725516  0.65780924     0.17900
H3233       H  0.57838581  0.55267585  0.58851833     0.17900
N3234       N  0.57515985  0.57367129  0.64488869    -0.88800
H3235       H  0.53146401  0.95545291  0.60320470     0.35300
H3236       H  0.50248441  0.95328276  0.57836182     0.40400
H3237       H  0.54872175  0.57370347  0.64120801     0.40000
H3238       H  0.58850850  0.59182262  0.63176609     0.34900
C3239       C  0.50097573  0.00682717  0.89013679    -0.26800
C3240       C  0.60127830  0.98878852  0.91216736    -0.14900
C3241       C  0.57925907  0.96611070  0.90159963     0.35700
C3242       C  0.57882090  0.96330217  0.86999315    -0.26300
C3243       C  0.60042333  0.98212998  0.84828130    -0.15500
C3244       C  0.50059833  0.00444254  0.85824611     0.36800
N3245       N  0.52535415  0.02221405  0.83674618    -0.89800
H3246       H  0.51957599  0.02269012  0.89828859     0.17900
H3247       H  0.56188483  0.94568364  0.86221366     0.17900
N3248       N  0.55854534  0.94502245  0.92288407    -0.88800
H3249       H  0.54250511  0.03503994  0.84826589     0.35300
H3250       H  0.51081555  0.03852124  0.82617646     0.40400
H3251       H  0.57649944  0.93094127  0.93226770     0.40000
H3252       H  0.54324424  0.93013441  0.91150543     0.34900
C3253       C  0.61728399  0.85955373  0.54384020    -0.26800
C3254       C  0.51879875  0.84424397  0.52239670    -0.14900
C3255       C  0.53468080  0.86064428  0.49583117     0.35700
C3256       C  0.52458412  0.89162088  0.49126035    -0.26300
C3257       C  0.49860417  0.90628578  0.51234130    -0.15500
C3258       C  0.60665357  0.89016087  0.53871725     0.36800
N3259       N  0.58068163  0.90500286  0.56106346    -0.89800
H3260       H  0.60517344  0.84715805  0.56436426     0.17900
H3261       H  0.53711122  0.90444044  0.47123087     0.17900
N3262       N  0.56148777  0.84612925  0.47402768    -0.88800
H3263       H  0.57339821  0.89044042  0.58021894     0.35300
H3264       H  0.55772493  0.90796388  0.55118334     0.40400
H3265       H  0.58326755  0.84162120  0.48510972     0.40000
H3266       H  0.44858294  0.86370762  0.45777656     0.34900
C3267       C  0.56087714  0.59471726  0.96985702    -0.26800
C3268       C  0.57922908  0.58725308  0.99398557    -0.14900
C3269       C  0.46536445  0.61210365  0.01466104     0.35700
C3270       C  0.45635261  0.64320036  0.00897754    -0.26300
C3271       C  0.55966927  0.64946455  0.98403234    -0.15500
C3272       C  0.55093565  0.62541176  0.96458952     0.36800
N3273       N  0.53200597  0.63209587  0.93950391    -0.89800
H3274       H  0.55438871  0.57635962  0.95488089     0.17900
H3275       H  0.46492620  0.66165209  0.02280523     0.17900
N3276       N  0.48699101  0.60541243  0.53863916    -0.88800
H3277       H  0.52805423  0.61185138  0.92741775     0.35300
H3278       H  0.50681548  0.64004543  0.94885581     0.40400
H3279       H  0.51190779  0.59700701  0.52913831     0.40000
H3280       H  0.49163712  0.62549211  0.55070817     0.34900
O3281       O  0.70806375  0.44949686  0.01434875    -0.72300
O3282       O  0.68882301  0.03430821  0.50200222    -0.72500
O3283       O  0.70146475  0.48611130  0.46522558    -0.72400
O3284       O  0.70143865  0.99869511  0.04988882    -0.72400
O3285       O  0.63415552  0.00367400  0.04065678    -0.72300
O3286       O  0.63135737  0.50093805  0.45345490    -0.72400
O3287       O  0.61975429  0.04632173  0.49757160    -0.72300
O3288       O  0.63863065  0.45805505  0.99737619    -0.72500
V3289       V  0.69919499  0.49249649  0.00900662     1.35200
V3290       V  0.62886839  0.00256748  0.49780872     1.35200
C3291       C  0.61402863  0.43877173  0.00679187     0.76900
C3292       C  0.71334825  0.05442494  0.49893584     0.77000
C3293       C  0.72829507  0.49268869  0.44545541     0.76900
C3294       C  0.60607082  0.00289682  0.06002599     0.76800
C3295       C  0.67869359  0.18288251  0.47766924     0.79700
N3296       N  0.67531145  0.20519099  0.49965812    -0.78600
C3297       C  0.66967675  0.23545832  0.49203434     0.82200
N3298       N  0.66776661  0.24334119  0.46229648    -0.77500
C3299       C  0.67156170  0.22119246  0.44024474     0.82200
N3300       N  0.67714617  0.19131945  0.44825633    -0.80300
C3301       C  0.65338783  0.31201196  0.02952508     0.79700
N3302       N  0.65888939  0.28964057  0.00774256    -0.78600
C3303       C  0.66775438  0.26022472  0.01536167     0.82200
N3304       N  0.67123443  0.25330351  0.04495471    -0.78500
C3305       C  0.66603380  0.27572237  0.06675411     0.82200
N3306       N  0.65707824  0.30490220  0.05889174    -0.80300
O3307       O  0.77095481  0.25484525  0.29931700    -0.72300
O3308       O  0.76960356  0.25980558  0.21313876    -0.72500
O3309       O  0.75872521  0.21416433  0.25586430    -0.72400
O3310       O  0.78156742  0.30045905  0.25627385    -0.72400
O3311       O  0.71181427  0.28862211  0.25435731    -0.72300
O3312       O  0.69012836  0.20388141  0.24233482    -0.72400
O3313       O  0.70199110  0.25407085  0.20581657    -0.72300
O3314       O  0.69970817  0.23832451  0.29098442    -0.72500
V3315       V  0.77116127  0.25710607  0.25600538     1.35200
V3316       V  0.69990457  0.24645443  0.24859254     1.35200
C3317       C  0.67244993  0.24407097  0.31025403     0.76900
C3318       C  0.67354146  0.25878479  0.19534313     0.77000
C3319       C  0.65847528  0.19409680  0.24725317     0.76900
C3320       C  0.68786368  0.30896677  0.25715421     0.76800
C3321       C  0.73825565  0.06867949  0.22480792     0.79700
N3322       N  0.73397214  0.04616980  0.24704277    -0.78600
C3323       C  0.72776871  0.01607068  0.23985245     0.82200
N3324       N  0.72607082  0.00853528  0.21013962    -0.78500
C3325       C  0.72983836  0.03099531  0.18780403     0.82200
N3326       N  0.73610240  0.06087284  0.19537319    -0.80300
C3327       C  0.72307416  0.43699645  0.27829518     0.79700
N3328       N  0.72874281  0.45917281  0.25578877    -0.78600
C3329       C  0.73460696  0.48936511  0.26298400     0.82200
N3330       N  0.73446298  0.49735271  0.29284871    -0.78500
C3331       C  0.72832870  0.47532175  0.31544811     0.82200
N3332       N  0.72256576  0.44543391  0.30785941    -0.80300
C3333       C  0.71628252  0.34884134  0.28485018    -0.26800
C3334       C  0.69703790  0.34181081  0.26124245    -0.14900
C3335       C  0.68818933  0.36577683  0.24172927     0.35700
C3336       C  0.69825217  0.39670504  0.24681777    -0.26300
C3337       C  0.71636884  0.40396927  0.27132557    -0.15500
C3338       C  0.72598257  0.37958093  0.29023958     0.36800
N3339       N  0.62034840  0.38787923  0.31088960    -0.89800
H3340       H  0.60055426  0.33147488  0.29496811     0.17900
H3341       H  0.69094843  0.41527517  0.23222607     0.17900
N3342       N  0.79203365  0.35791901  0.21544798    -0.88800
H3343       H  0.62709037  0.36740841  0.32162823     0.35300
H3344       H  0.64420379  0.39833132  0.30079807     0.40400
H3345       H  0.76737052  0.34864170  0.22508045     0.40000
H3346       H  0.78677556  0.37794671  0.20325779     0.34900
C3347       C  0.65882808  0.11445280  0.21097171    -0.26800
C3348       C  0.74900185  0.10080434  0.23157933    -0.14900
C3349       C  0.73492542  0.11623066  0.25888623     0.35700
C3350       C  0.74648071  0.14677942  0.26368861    -0.26300
C3351       C  0.65015200  0.16111106  0.24183281    -0.15500
C3352       C  0.66797053  0.14543375  0.21595745     0.36800
N3353       N  0.69399708  0.16139305  0.19393041    -0.89800
H3354       H  0.67264463  0.10255495  0.19132133     0.17900
H3355       H  0.73501652  0.15903539  0.28412021     0.17900
N3356       N  0.70860459  0.10117321  0.28128089    -0.88800
H3357       H  0.70230044  0.14724102  0.17500915     0.35300
H3358       H  0.71647159  0.16519534  0.20424028     0.40400
H3359       H  0.68608667  0.09729647  0.27101752     0.40000
H3360       H  0.70082102  0.11586778  0.29988169     0.34900
C3361       C  0.77815247  0.24175174  0.14643018    -0.26800
C3362       C  0.67359657  0.26272997  0.16215503    -0.14900
C3363       C  0.69314351  0.28677483  0.14467999     0.35700
C3364       C  0.69095221  0.28967478  0.11335233    -0.26300
C3365       C  0.67018751  0.26914679  0.09891347    -0.15500
C3366       C  0.77697876  0.24444014  0.11490406     0.36800
N3367       N  0.75606366  0.22239828  0.10115215    -0.89800
H3368       H  0.76344219  0.22304350  0.15954089     0.17900
H3369       H  0.70535628  0.30844944  0.10020899     0.17900
N3370       N  0.71459515  0.30913619  0.15780141    -0.88800
H3371       H  0.73726384  0.23452779  0.09085251     0.35300
H3372       H  0.77277437  0.21048155  0.08412339     0.40400
H3373       H  0.70390598  0.33119700  0.15510347     0.40000
H3374       H  0.58942456  0.30447411  0.17935446     0.34900
C3375       C  0.65227388  0.25799548  0.36521964    -0.26800
C3376       C  0.67249191  0.23876098  0.34354644    -0.14900
C3377       C  0.69217078  0.21417565  0.35396720     0.35700
C3378       C  0.69152416  0.20959433  0.38551402    -0.26300
C3379       C  0.67165425  0.22880035  0.40729563    -0.15500
C3380       C  0.65174172  0.25336630  0.39705963     0.36800
N3381       N  0.75843508  0.27365775  0.41774338    -0.89800
H3382       H  0.76414541  0.27738358  0.35631721     0.17900
H3383       H  0.70698119  0.19075490  0.39310937     0.17900
N3384       N  0.71152737  0.19292991  0.33264757    -0.88800
H3385       H  0.74599757  0.29098057  0.40649007     0.35300
H3386       H  0.73816179  0.26027293  0.43042535     0.40400
H3387       H  0.73419856  0.20461450  0.32175261     0.40000
H3388       H  0.59114050  0.17250591  0.34217575     0.34900
C3389       C  0.62818353  0.99381908  0.14092751    -0.26800
C3390       C  0.72915173  0.02299785  0.15515072    -0.14900
C3391       C  0.71526635  0.04384375  0.13514174     0.35700
C3392       C  0.71563487  0.03608322  0.10437247    -0.26300
C3393       C  0.73063343  0.00827392  0.09255751    -0.15500
C3394       C  0.61627349  0.48625083  0.11166679     0.36800
N3395       N  0.62856682  0.45588272  0.10153939    -0.89800
H3396       H  0.62635158  0.47725699  0.15760870     0.17900
H3397       H  0.70451936  0.05225095  0.08940839     0.17900
N3398       N  0.70034072  0.07292991  0.14589246    -0.88800
H3399       H  0.65563627  0.45480641  0.10303825     0.35300
H3400       H  0.62625535  0.45226075  0.07854728     0.40400
H3401       H  0.67415083  0.07365026  0.14158626     0.40000
H3402       H  0.71459516  0.09081544  0.13306245     0.34900
C3403       C  0.62340200  0.50760518  0.38906997    -0.26800
C3404       C  0.72721615  0.48934261  0.41217365    -0.14900
C3405       C  0.70463797  0.46721965  0.40151030     0.35700
C3406       C  0.70437918  0.46456610  0.36991826    -0.26300
C3407       C  0.72679736  0.48289875  0.34838316    -0.15500
C3408       C  0.62206007  0.50537913  0.35731635     0.36800
N3409       N  0.64439992  0.52501016  0.33565551    -0.89800
H3410       H  0.64086927  0.52465486  0.39702948     0.17900
H3411       H  0.68709151  0.44732249  0.36200391     0.17900
N3412       N  0.68323567  0.44646031  0.42266844    -0.88800
H3413       H  0.66103117  0.53872374  0.34689619     0.35300
H3414       H  0.62791192  0.54049232  0.32616606     0.40400
H3415       H  0.70070999  0.43192265  0.43212023     0.40000
H3416       H  0.66759860  0.43198863  0.41118400     0.34900
C3417       C  0.74121219  0.35821229  0.04198503    -0.26800
C3418       C  0.64232602  0.34371038  0.02200211    -0.14900
C3419       C  0.65896861  0.36026283  0.99581304     0.35700
C3420       C  0.64872178  0.39112330  0.99098387    -0.26300
C3421       C  0.62185682  0.40551298  0.01141522    -0.15500
C3422       C  0.73041483  0.38888409  0.03743328     0.36800
N3423       N  0.70353960  0.40288479  0.05960226    -0.89800
H3424       H  0.72849646  0.34511816  0.06184703     0.17900
H3425       H  0.66195025  0.40410940  0.97134037     0.17900
N3426       N  0.68671523  0.34604344  0.97469655    -0.88800
H3427       H  0.69576287  0.38770154  0.07818891     0.35300
H3428       H  0.68104281  0.40603585  0.04913130     0.40400
H3429       H  0.70791718  0.34162287  0.98650256     0.40000
H3430       H  0.57203646  0.36328464  0.95720395     0.34900
C3431       C  0.68546672  0.09480356  0.47118763    -0.26800
C3432       C  0.70487810  0.08742449  0.49464659    -0.14900
C3433       C  0.58935842  0.11226280  0.51265717     0.35700
C3434       C  0.57936602  0.14318184  0.50724376    -0.26300
C3435       C  0.68536235  0.14969859  0.48477235    -0.15500
C3436       C  0.67549535  0.12551346  0.46600012     0.36800
N3437       N  0.65540126  0.13208311  0.44165482    -0.89800
H3438       H  0.67812895  0.07636262  0.45668648     0.17900
H3439       H  0.58770196  0.16179483  0.52100864     0.17900
N3440       N  0.61323092  0.10533456  0.03671953    -0.88800
H3441       H  0.65042707  0.11170758  0.43016283     0.35300
H3442       H  0.63069228  0.14054036  0.45164213     0.40400
H3443       H  0.63773597  0.09627164  0.02702530     0.40000
H3444       H  0.61876113  0.12563768  0.04807531     0.34900
O3445       O  0.71128206  0.45048016  0.51381997    -0.72300
O3446       O  0.69170116  0.03513167  0.00220340    -0.72500
O3447       O  0.69733218  0.48618702  0.96660280    -0.72400
O3448       O  0.69835097  0.99891143  0.55049600    -0.72400
O3449       O  0.63204288  0.00399759  0.54025636    -0.72300
O3450       O  0.62757214  0.50072490  0.95418356    -0.72400
O3451       O  0.62239519  0.04630471  0.99806225    -0.72300
O3452       O  0.64244497  0.45894875  0.49722810    -0.72500
V3453       V  0.70269414  0.49332636  0.50752524     1.35200
V3454       V  0.63114687  0.00254321  0.99807914     1.35200
C3455       C  0.61787097  0.43963331  0.50664547     0.76900
C3456       C  0.71655575  0.05495263  0.99870384     0.77000
C3457       C  0.72391135  0.49305023  0.94665232     0.76900
C3458       C  0.60412513  0.00288695  0.55975244     0.76800
C3459       C  0.68428968  0.18381254  0.97716817     0.79700
N3460       N  0.67953031  0.20597126  0.99928884    -0.78600
C3461       C  0.67329917  0.23610975  0.99161627     0.82200
N3462       N  0.67205697  0.24396818  0.96175597    -0.77500
C3463       C  0.67731797  0.22196407  0.93960372     0.82200
N3464       N  0.68355588  0.19225121  0.94763526    -0.80300
C3465       C  0.65473318  0.31207498  0.52973900     0.79700
N3466       N  0.65875568  0.28959537  0.50800383    -0.78600
C3467       C  0.66582193  0.25971807  0.51568223     0.82200
N3468       N  0.66900698  0.25244280  0.54527429    -0.78500
C3469       C  0.66524447  0.27494325  0.56701954     0.82200
N3470       N  0.65806252  0.30456367  0.55908880    -0.80300
O3471       O  0.77396968  0.25529659  0.79884935    -0.72300
O3472       O  0.77161449  0.25964079  0.71283842    -0.72500
O3473       O  0.76208628  0.21414364  0.75564778    -0.72400
O3474       O  0.78341319  0.30073284  0.75568029    -0.72400
O3475       O  0.71396002  0.28792187  0.75382955    -0.72300
O3476       O  0.69259069  0.20302889  0.74148594    -0.72400
O3477       O  0.70354428  0.25344620  0.70527620    -0.72300
O3478       O  0.70293985  0.23728512  0.79012610    -0.72500
V3479       V  0.77370743  0.25725529  0.75560598     1.35200
V3480       V  0.70227210  0.24564544  0.74791192     1.35200
C3481       C  0.67599407  0.24294334  0.80974776     0.76900
C3482       C  0.67479164  0.25800843  0.69524405     0.77000
C3483       C  0.66094316  0.19318823  0.74668745     0.76900
C3484       C  0.68975621  0.30806147  0.75717872     0.76800
C3485       C  0.74067345  0.06932132  0.72464855     0.79700
N3486       N  0.73592866  0.04677589  0.74685012    -0.78600
C3487       C  0.72784960  0.01704566  0.73979257     0.82200
N3488       N  0.72454371  0.00997422  0.71032641    -0.78500
C3489       C  0.72885104  0.03244257  0.68800261     0.82200
N3490       N  0.73719916  0.06191178  0.69539528    -0.80300
C3491       C  0.72085340  0.43673599  0.77920791     0.79700
N3492       N  0.72662663  0.45877563  0.75658078    -0.78600
C3493       C  0.73175723  0.48909314  0.76365602     0.82200
N3494       N  0.73079453  0.49734272  0.79358139    -0.78500
C3495       C  0.72451910  0.47544876  0.81634612     0.82200
N3496       N  0.71949264  0.44537894  0.80884189    -0.80300
C3497       C  0.71790861  0.34841524  0.78470574    -0.26800
C3498       C  0.69837392  0.34101072  0.76136756    -0.14900
C3499       C  0.68794844  0.36487051  0.74250252     0.35700
C3500       C  0.69678615  0.39600932  0.74791219    -0.26300
C3501       C  0.71520277  0.40360036  0.77211899    -0.15500
C3502       C  0.72635889  0.37942133  0.79042292     0.36800
N3503       N  0.61974712  0.38939613  0.81196961    -0.89800
H3504       H  0.60118759  0.33267281  0.79577816     0.17900
H3505       H  0.68830670  0.41447354  0.73380912     0.17900
N3506       N  0.79186180  0.35857022  0.71601230    -0.88800
H3507       H  0.62626128  0.36906736  0.82307117     0.35300
H3508       H  0.64373307  0.39996412  0.80238627     0.40400
H3509       H  0.76747747  0.34903079  0.72599722     0.40000
H3510       H  0.78601614  0.37861645  0.70412357     0.34900
C3511       C  0.66037002  0.11352340  0.71045301    -0.26800
C3512       C  0.75238712  0.10115453  0.73137416    -0.14900
C3513       C  0.73860291  0.11670444  0.75865919     0.35700
C3514       C  0.75053186  0.14711615  0.76337704    -0.26300
C3515       C  0.65227976  0.16031281  0.74117605    -0.15500
C3516       C  0.67022690  0.14430170  0.71555836     0.36800
N3517       N  0.69711379  0.15972643  0.69391507    -0.89800
H3518       H  0.67419472  0.10124022  0.69101591     0.17900
H3519       H  0.73917283  0.15948094  0.78376251     0.17900
N3520       N  0.71193916  0.10200694  0.78100929    -0.88800
H3521       H  0.70556251  0.14536286  0.67518777     0.35300
H3522       H  0.71928377  0.16315275  0.70472068     0.40400
H3523       H  0.68932474  0.09867052  0.77071930     0.40000
H3524       H  0.70451784  0.11671501  0.79966488     0.34900
C3525       C  0.77851152  0.24229020  0.64663881    -0.26800
C3526       C  0.67417603  0.26188414  0.66214654    -0.14900
C3527       C  0.69396825  0.28554043  0.64430336     0.35700
C3528       C  0.69119060  0.28841711  0.61311140    -0.26300
C3529       C  0.66969441  0.26818976  0.59908723    -0.15500
C3530       C  0.77668157  0.24471022  0.61521430     0.36800
N3531       N  0.75487979  0.22290439  0.60210851    -0.89800
H3532       H  0.76352833  0.22399985  0.66017445     0.17900
H3533       H  0.70583155  0.30692031  0.59969553     0.17900
N3534       N  0.71634262  0.30752185  0.65688834    -0.88800
H3535       H  0.73620526  0.23524983  0.59187135     0.35300
H3536       H  0.77100274  0.21049376  0.58507436     0.40400
H3537       H  0.70621368  0.32979244  0.65413686     0.40000
H3538       H  0.59162633  0.30553794  0.67807389     0.34900
C3539       C  0.65616622  0.25706496  0.86457666    -0.26800
C3540       C  0.67684195  0.23809819  0.84296218    -0.14900
C3541       C  0.69780716  0.21445537  0.85340935     0.35700
C3542       C  0.69791671  0.21057243  0.88494022    -0.26300
C3543       C  0.67736938  0.22940102  0.90665163    -0.15500
C3544       C  0.65626592  0.25304749  0.89637314     0.36800
N3545       N  0.76179648  0.27415527  0.91717820    -0.89800
H3546       H  0.76749799  0.27791932  0.85576806     0.17900
H3547       H  0.71428417  0.19244459  0.89260424     0.17900
N3548       N  0.71753371  0.19330032  0.83222539    -0.88800
H3549       H  0.74917818  0.29136112  0.90593081     0.35300
H3550       H  0.74166089  0.26072057  0.92996631     0.40400
H3551       H  0.73941838  0.20544271  0.82055710     0.40000
H3552       H  0.59589877  0.17298998  0.84141167     0.34900
C3553       C  0.62669324  0.99345770  0.64045727    -0.26800
C3554       C  0.72686205  0.02455954  0.65550313    -0.14900
C3555       C  0.71881961  0.04728141  0.63420132     0.35700
C3556       C  0.71866272  0.03924770  0.60354592    -0.26300
C3557       C  0.72711202  0.00914281  0.59325683    -0.15500
C3558       C  0.62248237  0.48924064  0.61033570     0.36800
N3559       N  0.63907943  0.46055531  0.59949560    -0.89800
H3560       H  0.63370972  0.48115369  0.65610794     0.17900
H3561       H  0.71223990  0.05686759  0.58751152     0.17900
N3562       N  0.71046096  0.07858215  0.64342322    -0.88800
H3563       H  0.66610018  0.46242852  0.60102242     0.35300
H3564       H  0.63727291  0.45671795  0.57644240     0.40400
H3565       H  0.68529266  0.08370974  0.63816030     0.40000
H3566       H  0.72884518  0.09352191  0.63037251     0.34900
C3567       C  0.62059232  0.50772490  0.88984007    -0.26800
C3568       C  0.72245922  0.49005227  0.91329310    -0.14900
C3569       C  0.69966902  0.46814094  0.90253489     0.35700
C3570       C  0.69966735  0.46532080  0.87087416    -0.26300
C3571       C  0.72244994  0.48334787  0.84933560    -0.15500
C3572       C  0.61978040  0.50580040  0.85797185     0.36800
N3573       N  0.64355980  0.52455351  0.83657531    -0.89800
H3574       H  0.63867816  0.52403086  0.89806786     0.17900
H3575       H  0.68236004  0.44813067  0.86290114     0.17900
N3576       N  0.67792316  0.44761229  0.92366335    -0.88800
H3577       H  0.66048942  0.53762013  0.84810844     0.35300
H3578       H  0.62819430  0.54063149  0.82657386     0.40400
H3579       H  0.69521000  0.43286681  0.93308559     0.40000
H3580       H  0.66209914  0.43334666  0.91215522     0.34900
C3581       C  0.74247564  0.35893754  0.54201244    -0.26800
C3582       C  0.64494125  0.34423406  0.52236729    -0.14900
C3583       C  0.66165141  0.36044320  0.49596576     0.35700
C3584       C  0.65210989  0.39153760  0.49109775    -0.26300
C3585       C  0.62569408  0.40640460  0.51161795    -0.15500
C3586       C  0.73257747  0.38986970  0.53749344     0.36800
N3587       N  0.70608707  0.40434812  0.55965823    -0.89800
H3588       H  0.72939911  0.34601478  0.56187696     0.17900
H3589       H  0.66532758  0.40424582  0.47123968     0.17900
N3590       N  0.68860719  0.34557465  0.47458317    -0.88800
H3591       H  0.69790807  0.38925755  0.57824148     0.35300
H3592       H  0.68367866  0.40799513  0.54919418     0.40400
H3593       H  0.70992742  0.34063011  0.48608466     0.40000
H3594       H  0.57446683  0.36298062  0.45650025     0.34900
C3595       C  0.68910754  0.09570412  0.97116655    -0.26800
C3596       C  0.70858588  0.08805982  0.99449751    -0.14900
C3597       C  0.59374173  0.11259375  0.01217246     0.35700
C3598       C  0.58451772  0.14366782  0.00645908    -0.26300
C3599       C  0.69052519  0.15061932  0.98436062    -0.15500
C3600       C  0.67995325  0.12657815  0.96578656     0.36800
N3601       N  0.66002265  0.13348141  0.94140272    -0.89800
H3602       H  0.68116197  0.07735170  0.95686063     0.17900
H3603       H  0.59356808  0.16227172  0.01984253     0.17900
N3604       N  0.60859907  0.10511546  0.53738971    -0.88800
H3605       H  0.65444051  0.11316941  0.93007791     0.35300
H3606       H  0.63558744  0.14254424  0.95131130     0.40400
H3607       H  0.63348166  0.09670939  0.52781667     0.40000
H3608       H  0.61328829  0.12537348  0.54917262     0.34900
O3609       O  0.70991266  0.94938579  0.01291777    -0.72300
O3610       O  0.69181774  0.53568618  0.50168821    -0.72500
O3611       O  0.69870432  0.98475258  0.46553990    -0.72400
O3612       O  0.69942874  0.49855182  0.05173274    -0.72400
O3613       O  0.63104462  0.50283783  0.04003117    -0.72300
O3614       O  0.62794939  0.00155759  0.45480125    -0.72400
O3615       O  0.62276270  0.54604539  0.49601171    -0.72300
O3616       O  0.64149322  0.95915256  0.99795219    -0.72500
V3617       V  0.70193413  0.99247918  0.00724626     1.35200
V3618       V  0.63183409  0.50233723  0.49663349     1.35200
C3619       C  0.61699377  0.93987412  0.00763942     0.76900
C3620       C  0.71626674  0.55587548  0.49847831     0.77000
C3621       C  0.72573597  0.99107863  0.44592978     0.76900
C3622       C  0.60275581  0.50237623  0.05916935     0.76800
C3623       C  0.68083314  0.68413689  0.47727631     0.79700
N3624       N  0.67665518  0.70630147  0.49939883    -0.78600
C3625       C  0.67114501  0.73658781  0.49178650     0.82200
N3626       N  0.67032587  0.74464568  0.46189620    -0.77500
C3627       C  0.67500217  0.72262528  0.43970570     0.82200
N3628       N  0.68025871  0.69270546  0.44775844    -0.80300
C3629       C  0.65654531  0.81300932  0.02968624     0.79700
N3630       N  0.66097594  0.79065245  0.00783463    -0.78600
C3631       C  0.66894096  0.76096495  0.01532916     0.82200
N3632       N  0.67255684  0.75375841  0.04482799    -0.78500
C3633       C  0.66841052  0.77613594  0.06667030     0.82200
N3634       N  0.66035180  0.80559406  0.05895910    -0.80300
O3635       O  0.77619030  0.75318215  0.30022144    -0.72300
O3636       O  0.77342458  0.75832555  0.21447535    -0.72500
O3637       O  0.76417728  0.71233396  0.25662899    -0.72400
O3638       O  0.78544462  0.79901627  0.25772793    -0.72400
O3639       O  0.71638073  0.78859129  0.25306699    -0.72300
O3640       O  0.69544961  0.70320475  0.24162153    -0.72400
O3641       O  0.70621808  0.75344521  0.20487769    -0.72300
O3642       O  0.70549402  0.73826958  0.28994902    -0.72500
V3643       V  0.77576422  0.75551265  0.25711257     1.35200
V3644       V  0.70496131  0.74608276  0.24758917     1.35200
C3645       C  0.67860224  0.74461689  0.30939599     0.76900
C3646       C  0.67742008  0.75751759  0.19475809     0.77000
C3647       C  0.66384347  0.69332114  0.24765876     0.76900
C3648       C  0.69209448  0.80868777  0.25560053     0.76800
C3649       C  0.75138782  0.56581874  0.22350979     0.79700
N3650       N  0.74661119  0.54345090  0.24582938    -0.78600
C3651       C  0.74028967  0.51338642  0.23867616     0.82200
N3652       N  0.73852175  0.50577059  0.20904886    -0.78500
C3653       C  0.74285581  0.52808391  0.18665363     0.82200
N3654       N  0.74950663  0.55796584  0.19402418    -0.80300
C3655       C  0.71862267  0.93835426  0.27816976     0.79700
N3656       N  0.72094350  0.96113260  0.25623528    -0.78600
C3657       C  0.72447501  0.99157083  0.26388543     0.82200
N3658       N  0.72550060  0.99916804  0.29373851    -0.78500
C3659       C  0.72265797  0.97647402  0.31579540     0.82200
N3660       N  0.71904410  0.94640319  0.30772137    -0.80300
C3661       C  0.71943490  0.84981099  0.28287064    -0.26800
C3662       C  0.70029930  0.84183984  0.25943912    -0.14900
C3663       C  0.68927540  0.86540659  0.24055402     0.35700
C3664       C  0.69691850  0.89680153  0.24614927    -0.26300
C3665       C  0.71475296  0.90498326  0.27056936    -0.15500
C3666       C  0.72676778  0.88104021  0.28875396     0.36800
N3667       N  0.62219829  0.88626970  0.31311945    -0.89800
H3668       H  0.60368915  0.82963603  0.29651133     0.17900
H3669       H  0.68779608  0.91497502  0.23208343     0.17900
N3670       N  0.79527891  0.85764852  0.21801910    -0.88800
H3671       H  0.62892919  0.86585262  0.32395491     0.35300
H3672       H  0.64606630  0.89698392  0.30347647     0.40400
H3673       H  0.77078387  0.84796674  0.22749208     0.40000
H3674       H  0.78969123  0.87794619  0.20639592     0.34900
C3675       C  0.65405805  0.61652835  0.20853861    -0.26800
C3676       C  0.76020417  0.59827304  0.23065723    -0.14900
C3677       C  0.74284885  0.61385857  0.25677868     0.35700
C3678       C  0.75261601  0.64483951  0.26201679    -0.26300
C3679       C  0.65474405  0.66048537  0.24262903    -0.15500
C3680       C  0.66738372  0.64599646  0.21452589     0.36800
N3681       N  0.69212831  0.66195101  0.19144824    -0.89800
H3682       H  0.66257949  0.60633921  0.18640671     0.17900
H3683       H  0.73911552  0.65702655  0.28181621     0.17900
N3684       N  0.71503647  0.59848047  0.27746076    -0.88800
H3685       H  0.69696260  0.64885441  0.17135669     0.35300
H3686       H  0.71636688  0.66342314  0.19964443     0.40400
H3687       H  0.69420944  0.59390604  0.26524861     0.40000
H3688       H  0.70490895  0.61327444  0.29539333     0.34900
C3689       C  0.78000495  0.74025149  0.14829661    -0.26800
C3690       C  0.67689054  0.76183857  0.16171125    -0.14900
C3691       C  0.69668570  0.78576879  0.14426160     0.35700
C3692       C  0.69412962  0.78904161  0.11306491    -0.26300
C3693       C  0.67258619  0.76916887  0.09873498    -0.15500
C3694       C  0.77712094  0.74302664  0.11709638     0.36800
N3695       N  0.75574261  0.72073028  0.10415932    -0.89800
H3696       H  0.76608385  0.72137899  0.16177458     0.17900
H3697       H  0.70890271  0.80760971  0.09994374     0.17900
N3698       N  0.71874384  0.80771085  0.15727244    -0.88800
H3699       H  0.73617494  0.73260240  0.09462023     0.35300
H3700       H  0.77189567  0.70897620  0.08664274     0.40400
H3701       H  0.70856517  0.82997284  0.15457236     0.40000
H3702       H  0.59026934  0.80416692  0.18006671     0.34900
C3703       C  0.65962735  0.76022107  0.36388170    -0.26800
C3704       C  0.67895941  0.74000095  0.34266140    -0.14900
C3705       C  0.69739535  0.71486944  0.35353557     0.35700
C3706       C  0.69597658  0.71046885  0.38519565    -0.26300
C3707       C  0.67648509  0.73037235  0.40660008    -0.15500
C3708       C  0.65829701  0.75578785  0.39580682     0.36800
N3709       N  0.76044049  0.77289851  0.41763112    -0.89800
H3710       H  0.76756870  0.77592428  0.35613584     0.17900
H3711       H  0.71034321  0.69109560  0.39317087     0.17900
N3712       N  0.71597332  0.69282677  0.33258435    -0.88800
H3713       H  0.74694748  0.78913813  0.40597746     0.35300
H3714       H  0.74104661  0.75847607  0.43009295     0.40400
H3715       H  0.73898152  0.70378094  0.32138820     0.40000
H3716       H  0.60412853  0.67468605  0.34381465     0.34900
C3717       C  0.61656920  0.49412503  0.14254265    -0.26800
C3718       C  0.73846707  0.52038565  0.15476980    -0.14900
C3719       C  0.71809977  0.53963128  0.13819886     0.35700
C3720       C  0.71434471  0.53208556  0.10801708    -0.26300
C3721       C  0.73087040  0.50588117  0.09381020    -0.15500
C3722       C  0.62600314  0.98672609  0.11020243     0.36800
N3723       N  0.64181600  0.95826095  0.09787993    -0.89800
H3724       H  0.64262825  0.97835323  0.15406398     0.17900
H3725       H  0.69907183  0.54716524  0.09520168     0.17900
N3726       N  0.70062327  0.56645626  0.15239650    -0.88800
H3727       H  0.66925652  0.96015858  0.09729405     0.35300
H3728       H  0.63744735  0.95458811  0.07539589     0.40400
H3729       H  0.68232894  0.55813481  0.17085703     0.40000
H3730       H  0.68603708  0.57779629  0.13740665     0.34900
C3731       C  0.62115705  0.00739355  0.39070353    -0.26800
C3732       C  0.72450897  0.98814226  0.41252676    -0.14900
C3733       C  0.70060049  0.96720155  0.40183672     0.35700
C3734       C  0.69952960  0.96532163  0.37028761    -0.26300
C3735       C  0.72221306  0.98338152  0.34876216    -0.15500
C3736       C  0.62110380  0.00447648  0.35887390     0.36800
N3737       N  0.64511146  0.02293122  0.33736918    -0.89800
H3738       H  0.63879152  0.02420885  0.39879611     0.17900
H3739       H  0.68129696  0.94894350  0.36233122     0.17900
N3740       N  0.67853869  0.94683651  0.42291148    -0.88800
H3741       H  0.66183796  0.03628398  0.34884952     0.35300
H3742       H  0.62989431  0.03878923  0.32693903     0.40400
H3743       H  0.69553246  0.93132200  0.43172736     0.40000
H3744       H  0.66186529  0.93337061  0.41147875     0.34900
C3745       C  0.74069410  0.85837423  0.04342346    -0.26800
C3746       C  0.64570819  0.84485286  0.02251396    -0.14900
C3747       C  0.66196306  0.86140760  0.99619499     0.35700
C3748       C  0.65167906  0.89229327  0.99156874    -0.26300
C3749       C  0.62498695  0.90663566  0.01222431    -0.15500
C3750       C  0.73085822  0.88919521  0.03824479     0.36800
N3751       N  0.70446546  0.90417418  0.06010637    -0.89800
H3752       H  0.72748514  0.84586396  0.06345297     0.17900
H3753       H  0.66467430  0.90531119  0.97185799     0.17900
N3754       N  0.68923697  0.84711314  0.97466118    -0.88800
H3755       H  0.69609833  0.88943741  0.07893202     0.35300
H3756       H  0.68214100  0.90780198  0.04953806     0.40400
H3757       H  0.71065945  0.84239316  0.98609561     0.40000
H3758       H  0.57537347  0.86142264  0.95804070     0.34900
C3759       C  0.68739857  0.59606022  0.47107843    -0.26800
C3760       C  0.70760534  0.58884559  0.49407058    -0.14900
C3761       C  0.59184749  0.61146953  0.51269500     0.35700
C3762       C  0.58203274  0.64257920  0.50798316    -0.26300
C3763       C  0.68765577  0.65101984  0.48433068    -0.15500
C3764       C  0.67739922  0.62677583  0.46584578     0.36800
N3765       N  0.65707586  0.63333879  0.44165174    -0.89800
H3766       H  0.67964795  0.57753472  0.45687580     0.17900
H3767       H  0.58999185  0.66073536  0.52246224     0.17900
N3768       N  0.60386440  0.60285760  0.04013580    -0.88800
H3769       H  0.65166903  0.61290520  0.43044084     0.35300
H3770       H  0.63259179  0.64216066  0.45172279     0.40400
H3771       H  0.62951649  0.59523913  0.03182330     0.40000
H3772       H  0.60670827  0.62266007  0.05320060     0.34900
O3773       O  0.70781325  0.94898711  0.51435607    -0.72300
O3774       O  0.68816139  0.53502900  0.00426452    -0.72500
O3775       O  0.70052313  0.98610907  0.96489380    -0.72400
O3776       O  0.70235924  0.50025142  0.55018302    -0.72400
O3777       O  0.63441251  0.50435310  0.53929858    -0.72300
O3778       O  0.63023633  0.00183171  0.95496068    -0.72400
O3779       O  0.61942019  0.54522721  0.99731432    -0.72300
O3780       O  0.63947842  0.95917808  0.49789338    -0.72500
V3781       V  0.69944526  0.99189002  0.50789025     1.35200
V3782       V  0.62826271  0.50147161  0.99736813     1.35200
C3783       C  0.61501822  0.93982269  0.50748513     0.76900
C3784       C  0.71262949  0.55521901  0.00118389     0.77000
C3785       C  0.72762143  0.99180540  0.94514399     0.76900
C3786       C  0.60606904  0.50376987  0.55837259     0.76800
C3787       C  0.68120652  0.68391501  0.97802172     0.79700
N3788       N  0.67813324  0.70646438  0.99970643    -0.78600
C3789       C  0.67280568  0.73665380  0.99177509     0.82200
N3790       N  0.67083797  0.74424335  0.96197880    -0.77500
C3791       C  0.67439217  0.72183955  0.94014199     0.82200
N3792       N  0.67969074  0.69198702  0.94848536    -0.80300
C3793       C  0.65364685  0.81268235  0.53006509     0.79700
N3794       N  0.65830543  0.79035228  0.50818553    -0.78600
C3795       C  0.66645427  0.76067899  0.51561771     0.82200
N3796       N  0.67006886  0.75345291  0.54512628    -0.78500
C3797       C  0.66569311  0.77579794  0.56703026     0.82200
N3798       N  0.65745147  0.80523063  0.55933253    -0.80300
O3799       O  0.77293691  0.75314642  0.80052156    -0.72300
O3800       O  0.77084799  0.75766653  0.71464542    -0.72500
O3801       O  0.76095021  0.71203783  0.75705579    -0.72400
O3802       O  0.78298778  0.79871121  0.75769353    -0.72400
O3803       O  0.71358641  0.78930305  0.75352718    -0.72300
O3804       O  0.69200385  0.70408320  0.74245781    -0.72400
O3805       O  0.70327755  0.75404241  0.70552488    -0.72300
O3806       O  0.70222724  0.73901394  0.79066134    -0.72500
V3807       V  0.77287541  0.75519643  0.75733625     1.35200
V3808       V  0.70182038  0.74685019  0.74828204     1.35200
C3809       C  0.67513772  0.74482531  0.81010062     0.76900
C3810       C  0.67458411  0.75840690  0.69533506     0.77000
C3811       C  0.66029393  0.69443104  0.74803945     0.76900
C3812       C  0.68944571  0.80954075  0.75615119     0.76800
C3813       C  0.74903740  0.56534987  0.72401364     0.79700
N3814       N  0.74391752  0.54302786  0.74633062    -0.78600
C3815       C  0.73774462  0.51296414  0.73914187     0.82200
N3816       N  0.73650045  0.50529670  0.70937280    -0.78500
C3817       C  0.74117033  0.52766820  0.68696092     0.82200
N3818       N  0.74765407  0.55751962  0.69446716    -0.80300
C3819       C  0.71758624  0.93913898  0.77774717     0.79700
N3820       N  0.71998478  0.96203274  0.75590161    -0.78600
C3821       C  0.72432654  0.99236716  0.76362604     0.82200
N3822       N  0.72613472  0.99970785  0.79338158    -0.78500
C3823       C  0.72317508  0.97692618  0.81531448     0.82200
N3824       N  0.71868481  0.94698952  0.80725059    -0.80300
C3825       C  0.71807986  0.85062668  0.78236992    -0.26800
C3826       C  0.69803851  0.84269447  0.75956872    -0.14900
C3827       C  0.68658000  0.86629062  0.74092091     0.35700
C3828       C  0.69461241  0.89768634  0.74625096    -0.26300
C3829       C  0.71330673  0.90580939  0.77014682    -0.15500
C3830       C  0.72583555  0.88181773  0.78796655     0.36800
N3831       N  0.62123204  0.88614468  0.81332985    -0.89800
H3832       H  0.60089054  0.82989480  0.79741344     0.17900
H3833       H  0.68513817  0.91590007  0.73243865     0.17900
N3834       N  0.79520922  0.85766941  0.71767563    -0.88800
H3835       H  0.62734767  0.86564683  0.82436922     0.35300
H3836       H  0.64540840  0.89624770  0.80358353     0.40400
H3837       H  0.77016435  0.84893472  0.72696002     0.40000
H3838       H  0.79084302  0.87807152  0.70567630     0.34900
C3839       C  0.65301023  0.61689642  0.70961533    -0.26800
C3840       C  0.75764057  0.59774954  0.73125201    -0.14900
C3841       C  0.73896321  0.61366762  0.75655694     0.35700
C3842       C  0.74842550  0.64470857  0.76183745    -0.26300
C3843       C  0.65111115  0.66168379  0.74290793    -0.15500
C3844       C  0.66590102  0.64644708  0.71574849     0.36800
N3845       N  0.69261656  0.66160282  0.69373779    -0.89800
H3846       H  0.66357187  0.60584921  0.68832189     0.17900
H3847       H  0.73392708  0.65716718  0.78100558     0.17900
N3848       N  0.71019374  0.59852825  0.77636598    -0.88800
H3849       H  0.69890432  0.64799050  0.67410705     0.35300
H3850       H  0.71580812  0.66297612  0.70355180     0.40400
H3851       H  0.69030985  0.59363614  0.76322148     0.40000
H3852       H  0.69904832  0.61359501  0.79370554     0.34900
C3853       C  0.77780131  0.73874239  0.64853142    -0.26800
C3854       C  0.67422688  0.76229756  0.66222077    -0.14900
C3855       C  0.69317955  0.78666473  0.64481771     0.35700
C3856       C  0.69071193  0.78963048  0.61358204    -0.26300
C3857       C  0.67015587  0.76896106  0.59910564    -0.15500
C3858       C  0.77470882  0.74167416  0.61737051     0.36800
N3859       N  0.75333335  0.71941543  0.60437579    -0.89800
H3860       H  0.76401454  0.71978667  0.66198194     0.17900
H3861       H  0.70472103  0.80862511  0.60056842     0.17900
N3862       N  0.71427923  0.80932604  0.65793574    -0.88800
H3863       H  0.73356430  0.73132530  0.59513477     0.35300
H3864       H  0.76941317  0.70793891  0.58661071     0.40400
H3865       H  0.70311159  0.83121885  0.65539753     0.40000
H3866       H  0.58957797  0.80512876  0.68074648     0.34900
C3867       C  0.65593978  0.75909890  0.86502206    -0.26800
C3868       C  0.67535890  0.73939455  0.84334309    -0.14900
C3869       C  0.69405894  0.71411985  0.85372205     0.35700
C3870       C  0.69332166  0.70941539  0.88530607    -0.26300
C3871       C  0.67432877  0.72919309  0.90711349    -0.15500
C3872       C  0.65527893  0.75434545  0.89684709     0.36800
N3873       N  0.75905352  0.77382968  0.91826952    -0.89800
H3874       H  0.76550142  0.77670342  0.85674452     0.17900
H3875       H  0.70803530  0.69006824  0.89289857     0.17900
N3876       N  0.71240378  0.69234227  0.83234155    -0.88800
H3877       H  0.74637085  0.79071608  0.90667940     0.35300
H3878       H  0.73898567  0.76025472  0.93095633     0.40400
H3879       H  0.73534148  0.70339619  0.82113152     0.40000
H3880       H  0.59803143  0.67402764  0.84384983     0.34900
C3881       C  0.62151165  0.49681302  0.64143594    -0.26800
C3882       C  0.73762764  0.52024255  0.65478505    -0.14900
C3883       C  0.71745179  0.53952060  0.63803687     0.35700
C3884       C  0.71511027  0.53269040  0.60738333    -0.26300
C3885       C  0.73299451  0.50726990  0.59281175    -0.15500
C3886       C  0.62421762  0.98645016  0.60975359     0.36800
N3887       N  0.63955498  0.95783774  0.59735207    -0.89800
H3888       H  0.64084232  0.97771904  0.65357013     0.17900
H3889       H  0.69982285  0.54771282  0.59452779     0.17900
N3890       N  0.69888483  0.56574579  0.65246406    -0.88800
H3891       H  0.66699995  0.95932862  0.59684863     0.35300
H3892       H  0.63527149  0.95442289  0.57480514     0.40400
H3893       H  0.68020012  0.55679778  0.67031902     0.40000
H3894       H  0.68467577  0.57723101  0.63728054     0.34900
C3895       C  0.62261706  0.00801150  0.89060033    -0.26800
C3896       C  0.72613845  0.98872692  0.91178366    -0.14900
C3897       C  0.70087299  0.96893235  0.90137092     0.35700
C3898       C  0.69965012  0.96693321  0.86986112    -0.26300
C3899       C  0.72345683  0.98371462  0.84814069    -0.15500
C3900       C  0.62235334  0.00504360  0.85874811     0.36800
N3901       N  0.64545031  0.02417696  0.83717759    -0.89800
H3902       H  0.63969248  0.02534932  0.89862959     0.17900
H3903       H  0.68035193  0.95148149  0.86209242     0.17900
N3904       N  0.67758275  0.94973313  0.92267709    -0.88800
H3905       H  0.66179977  0.03801584  0.84858105     0.35300
H3906       H  0.62949452  0.03955910  0.82696589     0.40400
H3907       H  0.69360117  0.93343110  0.93159446     0.40000
H3908       H  0.66005520  0.93705830  0.91141557     0.34900
C3909       C  0.73842578  0.85760950  0.54397533    -0.26800
C3910       C  0.64310674  0.84466819  0.52282001    -0.14900
C3911       C  0.65889931  0.86082376  0.49605901     0.35700
C3912       C  0.64884414  0.89176590  0.49124797    -0.26300
C3913       C  0.62298304  0.90662118  0.51227586    -0.15500
C3914       C  0.72853081  0.88846214  0.53902743     0.36800
N3915       N  0.70135780  0.90291216  0.56056160    -0.89800
H3916       H  0.72492632  0.84483934  0.56369097     0.17900
H3917       H  0.66134038  0.90441919  0.47110221     0.17900
N3918       N  0.68559214  0.84610657  0.47430259    -0.88800
H3919       H  0.69250224  0.88780647  0.57898383     0.35300
H3920       H  0.67949463  0.90662784  0.54942654     0.40400
H3921       H  0.70741032  0.84163578  0.48533919     0.40000
H3922       H  0.57046574  0.86143152  0.45580014     0.34900
C3923       C  0.68372064  0.59559839  0.97428544    -0.26800
C3924       C  0.70411814  0.58825101  0.99707870    -0.14900
C3925       C  0.58697329  0.61070876  0.01414118     0.35700
C3926       C  0.57690105  0.64167575  0.00906528    -0.26300
C3927       C  0.68691336  0.65078692  0.98581504    -0.15500
C3928       C  0.67503636  0.62647280  0.96832752     0.36800
N3929       N  0.65445115  0.63312001  0.94434443    -0.89800
H3930       H  0.67504586  0.57705699  0.96058731     0.17900
H3931       H  0.58347520  0.65986976  0.02413792     0.17900
N3932       N  0.61033125  0.60345530  0.53769145    -0.88800
H3933       H  0.64779526  0.61260994  0.93387909     0.35300
H3934       H  0.63057682  0.64300419  0.95451439     0.40400
H3935       H  0.63547242  0.59542678  0.52833735     0.40000
H3936       H  0.61446084  0.62327094  0.55033333     0.34900
O3937       O  0.83316446  0.44851191  0.01267747    -0.72300
O3938       O  0.81328386  0.03470901  0.50492286    -0.72500
O3939       O  0.82658238  0.48477762  0.46406225    -0.72400
O3940       O  0.82631638  0.99892517  0.05218682    -0.72400
O3941       O  0.75873057  0.00349492  0.04066989    -0.72300
O3942       O  0.75604776  0.50211721  0.45493027    -0.72400
O3943       O  0.74488093  0.04525827  0.49815398    -0.72300
O3944       O  0.76374689  0.45897597  0.99818861    -0.72500
V3945       V  0.82458568  0.49140011  0.00646617     1.35200
V3946       V  0.75358150  0.00149698  0.49897220     1.35200
C3947       C  0.73935808  0.43952704  0.00769171     0.76900
C3948       C  0.83769431  0.05493067  0.50135222     0.77000
C3949       C  0.85331178  0.49114733  0.44411063     0.76900
C3950       C  0.73040167  0.00262911  0.05977041     0.76800
C3951       C  0.80502301  0.18316196  0.47697346     0.79700
N3952       N  0.80142201  0.20573606  0.49865818    -0.78600
C3953       C  0.79587467  0.23587278  0.49067289     0.82200
N3954       N  0.79417965  0.24338080  0.46083071    -0.77500
C3955       C  0.79822691  0.22099544  0.43898345     0.82200
N3956       N  0.80379558  0.19118510  0.44735682    -0.80300
C3957       C  0.77929091  0.31237572  0.02844214     0.79700
N3958       N  0.78494898  0.29014770  0.00647463    -0.78600
C3959       C  0.79376303  0.26064935  0.01398592     0.82200
N3960       N  0.79697869  0.25354474  0.04361995    -0.78500
C3961       C  0.79158225  0.27581091  0.06555893     0.82200
N3962       N  0.78273367  0.30502178  0.05779496    -0.80300
O3963       O  0.89531947  0.25390591  0.30022618    -0.72300
O3964       O  0.89468733  0.25994326  0.21407638    -0.72500
O3965       O  0.88415719  0.21349234  0.25583204    -0.72400
O3966       O  0.90593353  0.30013931  0.25803956    -0.72400
O3967       O  0.83717941  0.28864978  0.25288202    -0.72300
O3968       O  0.81430160  0.20371105  0.24136509    -0.72400
O3969       O  0.82668785  0.25387819  0.20463585    -0.72300
O3970       O  0.82500065  0.23819050  0.28966360    -0.72500
V3971       V  0.89595827  0.25665653  0.25691430     1.35200
V3972       V  0.82484008  0.24635468  0.24736281     1.35200
C3973       C  0.79804461  0.24426475  0.30910989     0.76900
C3974       C  0.79815611  0.25867903  0.19433071     0.77000
C3975       C  0.78243310  0.19441061  0.24707406     0.76900
C3976       C  0.81333334  0.30915714  0.25543086     0.76800
C3977       C  0.87445673  0.06578573  0.22490837     0.79700
N3978       N  0.86971489  0.04356634  0.24742575    -0.78600
C3979       C  0.86354293  0.01339297  0.24043352     0.82200
N3980       N  0.86192783  0.00558023  0.21081623    -0.78500
C3981       C  0.86616749  0.02776483  0.18830757     0.82200
N3982       N  0.87260319  0.05770748  0.19550633    -0.80300
C3983       C  0.84225658  0.43852934  0.27679550     0.79700
N3984       N  0.84566731  0.46121035  0.25472224    -0.78600
C3985       C  0.85037817  0.49151778  0.26227078     0.82200
N3986       N  0.85151370  0.49904634  0.29213302    -0.78500
C3987       C  0.84755378  0.47644552  0.31432353     0.82200
N3988       N  0.84277624  0.44653323  0.30633099    -0.80300
C3989       C  0.84221382  0.35008553  0.28169898    -0.26800
C3990       C  0.82227227  0.34222306  0.25880413    -0.14900
C3991       C  0.81092144  0.36585125  0.24013384     0.35700
C3992       C  0.81908670  0.39719991  0.24543097    -0.26300
C3993       C  0.83773021  0.40524588  0.26935695    -0.15500
C3994       C  0.85003269  0.38125815  0.28730360     0.36800
N3995       N  0.74548325  0.38602302  0.31493353    -0.89800
H3996       H  0.72344633  0.33016614  0.29942446     0.17900
H3997       H  0.80974115  0.41544731  0.23157772     0.17900
N3998       N  0.92013424  0.35892817  0.21720078    -0.88800
H3999       H  0.75037967  0.36549407  0.32651444     0.35300
H4000       H  0.77024286  0.39509822  0.30527153     0.40400
H4001       H  0.89474742  0.35054866  0.22591705     0.40000
H4002       H  0.91657877  0.37927559  0.20481114     0.34900
C4003       C  0.77446946  0.11616484  0.21001956    -0.26800
C4004       C  0.88266573  0.09846870  0.23169899    -0.14900
C4005       C  0.86402367  0.11446463  0.25696389     0.35700
C4006       C  0.87287083  0.14578415  0.26170244    -0.26300
C4007       C  0.77272945  0.16164283  0.24239101    -0.15500
C4008       C  0.78724337  0.14595053  0.21544230     0.36800
N4009       N  0.81366044  0.16082441  0.19295438    -0.89800
H4010       H  0.78484779  0.10479731  0.18885000     0.17900
H4011       H  0.85845727  0.15822166  0.28089171     0.17900
N4012       N  0.83580535  0.09914229  0.27723981    -0.88800
H4013       H  0.81967503  0.14691151  0.17350614     0.35300
H4014       H  0.83704614  0.16240429  0.20247058     0.40400
H4015       H  0.81569367  0.09388330  0.26443701     0.40000
H4016       H  0.82472664  0.11423621  0.29458042     0.34900
C4017       C  0.90196275  0.24282269  0.14792650    -0.26800
C4018       C  0.79813887  0.26273066  0.16116333    -0.14900
C4019       C  0.81741698  0.28704317  0.14389887     0.35700
C4020       C  0.81555630  0.28993288  0.11252686    -0.26300
C4021       C  0.79539851  0.26914202  0.09779155    -0.15500
C4022       C  0.90085703  0.24525740  0.11640292     0.36800
N4023       N  0.87879569  0.22391395  0.10300894    -0.89800
H4024       H  0.88614753  0.22493332  0.16135486     0.17900
H4025       H  0.82978056  0.30889653  0.09956571     0.17900
N4026       N  0.83833621  0.30965040  0.15727301    -0.88800
H4027       H  0.86084574  0.23665341  0.09228885     0.35300
H4028       H  0.89489660  0.21109019  0.08630020     0.40400
H4029       H  0.82732961  0.33157695  0.15455481     0.40000
H4030       H  0.71362187  0.30575183  0.18137159     0.34900
C4031       C  0.77899394  0.25823203  0.36411694    -0.26800
C4032       C  0.79834005  0.23864033  0.34231334    -0.14900
C4033       C  0.81732757  0.21344389  0.35252277     0.35700
C4034       C  0.81690836  0.20869503  0.38406215    -0.26300
C4035       C  0.79796843  0.22836378  0.40598571    -0.15500
C4036       C  0.77868225  0.25345981  0.39588551     0.36800
N4037       N  0.88127710  0.27424971  0.41837342    -0.89800
H4038       H  0.88746209  0.27720408  0.35683957     0.17900
H4039       H  0.83182817  0.18941873  0.39152658     0.17900
N4040       N  0.83573288  0.19182781  0.33101700    -0.88800
H4041       H  0.86852552  0.29114714  0.40685550     0.35300
H4042       H  0.86127480  0.26070359  0.43117133     0.40400
H4043       H  0.85865585  0.20299172  0.31990931     0.40000
H4044       H  0.72077130  0.17403735  0.34424479     0.34900
C4045       C  0.74382650  0.99475846  0.14335100    -0.26800
C4046       C  0.86213893  0.01990802  0.15641375    -0.14900
C4047       C  0.84124325  0.03862927  0.13984992     0.35700
C4048       C  0.83857200  0.03138498  0.10936226    -0.26300
C4049       C  0.85670322  0.00601951  0.09488027    -0.15500
C4050       C  0.75071745  0.48599707  0.11050941     0.36800
N4051       N  0.76665235  0.45767350  0.09793333    -0.89800
H4052       H  0.76933017  0.47831754  0.15365205     0.17900
H4053       H  0.82291168  0.04608265  0.09653665     0.17900
N4054       N  0.82233715  0.06469623  0.15429027    -0.88800
H4055       H  0.79416343  0.45996409  0.09652507     0.35300
H4056       H  0.76142307  0.45372214  0.07573975     0.40400
H4057       H  0.80404695  0.05566542  0.17241161     0.40000
H4058       H  0.80763910  0.07575805  0.13921396     0.34900
C4059       C  0.74914328  0.50829697  0.39077474    -0.26800
C4060       C  0.85158852  0.48794083  0.41082423    -0.14900
C4061       C  0.82792366  0.46651457  0.40052666     0.35700
C4062       C  0.82610085  0.46466002  0.36909196    -0.26300
C4063       C  0.84787307  0.48318638  0.34726880    -0.15500
C4064       C  0.74904811  0.50547548  0.35893107     0.36800
N4065       N  0.77252699  0.52442845  0.33747575    -0.89800
H4066       H  0.76650697  0.52531145  0.39892742     0.17900
H4067       H  0.80794892  0.44798573  0.36147314     0.17900
N4068       N  0.80683102  0.44572541  0.42187172    -0.88800
H4069       H  0.78890709  0.53811831  0.34899167     0.35300
H4070       H  0.75685896  0.53996390  0.32713220     0.40400
H4071       H  0.82445950  0.43061261  0.43040471     0.40000
H4072       H  0.79026154  0.43185571  0.41071724     0.34900
C4073       C  0.86704940  0.35821033  0.04260417    -0.26800
C4074       C  0.76809693  0.34417326  0.02131777    -0.14900
C4075       C  0.78473870  0.36120418  0.99545053     0.35700
C4076       C  0.77442861  0.39217818  0.99116507    -0.26300
C4077       C  0.74749805  0.40622449  0.01184596    -0.15500
C4078       C  0.85581701  0.38855147  0.03721620     0.36800
N4079       N  0.82905031  0.40298390  0.05915049    -0.89800
H4080       H  0.85496012  0.34575346  0.06308443     0.17900
H4081       H  0.78769353  0.40554172  0.97178017     0.17900
N4082       N  0.81258097  0.34735943  0.97414657    -0.88800
H4083       H  0.82149619  0.38827962  0.07815465     0.35300
H4084       H  0.80642793  0.40566336  0.04876001     0.40400
H4085       H  0.83367808  0.34257956  0.98596985     0.40000
H4086       H  0.69627395  0.36149018  0.95674645     0.34900
C4087       C  0.80952896  0.09481621  0.47314220    -0.26800
C4088       C  0.82903266  0.08782966  0.49667021    -0.14900
C4089       C  0.71385463  0.11106378  0.51411872     0.35700
C4090       C  0.70383927  0.14205812  0.50906359    -0.26300
C4091       C  0.81101066  0.15008300  0.48491649    -0.15500
C4092       C  0.80035233  0.12554652  0.46700162     0.36800
N4093       N  0.78037185  0.13180640  0.44251609    -0.89800
H4094       H  0.80175175  0.07609321  0.45918211     0.17900
H4095       H  0.71132825  0.16037444  0.52359207     0.17900
N4096       N  0.73680018  0.10371046  0.03879006    -0.88800
H4097       H  0.77469876  0.11118763  0.43173193     0.35300
H4098       H  0.75597720  0.14107234  0.45227974     0.40400
H4099       H  0.76169278  0.09502964  0.02961687     0.40000
H4100       H  0.74148508  0.12368104  0.05100560     0.34900
O4101       O  0.83622550  0.44980630  0.51317352    -0.72300
O4102       O  0.81621575  0.03527635  0.00420335    -0.72500
O4103       O  0.82311772  0.48433059  0.96418523    -0.72400
O4104       O  0.82488824  0.99855939  0.55267644    -0.72400
O4105       O  0.75568075  0.00363831  0.54172962    -0.72300
O4106       O  0.75184097  0.50227073  0.95600694    -0.72400
O4107       O  0.74801894  0.04540501  0.99722455    -0.72300
O4108       O  0.76711946  0.45956627  0.49801642    -0.72500
V4109       V  0.82797727  0.49256735  0.50621775     1.35200
V4110       V  0.75619944  0.00159040  0.99795142     1.35200
C4111       C  0.74250408  0.44031024  0.50752465     0.76900
C4112       C  0.84089408  0.05529424  0.00099833     0.77000
C4113       C  0.84976663  0.49116183  0.94431677     0.76900
C4114       C  0.72713820  0.00310951  0.56056844     0.76800
C4115       C  0.81000025  0.18398450  0.97627727     0.79700
N4116       N  0.80565734  0.20642984  0.99809741    -0.78600
C4117       C  0.79915889  0.23643478  0.99025985     0.82200
N4118       N  0.79722576  0.24390599  0.96042484    -0.77500
C4119       C  0.80200609  0.22164113  0.93844436     0.82200
N4120       N  0.80851029  0.19199140  0.94670624    -0.80300
C4121       C  0.77916747  0.31234661  0.52842909     0.79700
N4122       N  0.78367254  0.28994610  0.50659362    -0.78600
C4123       C  0.79157772  0.26023656  0.51420178     0.82200
N4124       N  0.79511005  0.25309894  0.54374445    -0.78500
C4125       C  0.79090243  0.27553530  0.56552316     0.82200
N4126       N  0.78289449  0.30495608  0.55770512    -0.80300
O4127       O  0.89845336  0.25311948  0.80039078    -0.72300
O4128       O  0.89617787  0.25923174  0.71450914    -0.72500
O4129       O  0.88618718  0.21280242  0.75621834    -0.72400
O4130       O  0.90844615  0.29945152  0.75829143    -0.72400
O4131       O  0.83918955  0.28958864  0.75251122    -0.72300
O4132       O  0.81767876  0.20450597  0.74019437    -0.72400
O4133       O  0.82886164  0.25510908  0.70396526    -0.72300
O4134       O  0.82802021  0.23873630  0.78887667    -0.72500
V4135       V  0.89825375  0.25595286  0.75720449     1.35200
V4136       V  0.82751963  0.24721872  0.74661105     1.35200
C4137       C  0.80117531  0.24477231  0.80848427     0.76900
C4138       C  0.80006065  0.25919037  0.69385806     0.77000
C4139       C  0.78603104  0.19474245  0.74639048     0.76900
C4140       C  0.81502111  0.30980287  0.75503225     0.76800
C4141       C  0.87528227  0.06490203  0.72513079     0.79700
N4142       N  0.87080915  0.04250947  0.74747790    -0.78600
C4143       C  0.86512876  0.01229311  0.74025033     0.82200
N4144       N  0.86362059  0.00464424  0.71053233    -0.78500
C4145       C  0.86760981  0.02702763  0.68815765     0.82200
N4146       N  0.87371239  0.05696260  0.69563455    -0.80300
C4147       C  0.84295550  0.43923096  0.77654661     0.79700
N4148       N  0.84671611  0.46186412  0.75441725    -0.78600
C4149       C  0.85104793  0.49219600  0.76204120     0.82200
N4150       N  0.85139650  0.49979562  0.79198063    -0.78500
C4151       C  0.84706810  0.47724393  0.81417536     0.82200
N4152       N  0.84271671  0.44727866  0.80617386    -0.80300
C4153       C  0.84380162  0.35088069  0.78117255    -0.26800
C4154       C  0.82344044  0.34293841  0.75858488    -0.14900
C4155       C  0.81133221  0.36653724  0.74031226     0.35700
C4156       C  0.81937661  0.39790532  0.74557084    -0.26300
C4157       C  0.83856993  0.40598681  0.76910674    -0.15500
C4158       C  0.85141396  0.38208869  0.78678698     0.36800
N4159       N  0.74615260  0.38636978  0.81479891    -0.89800
H4160       H  0.72617433  0.32985856  0.79884731     0.17900
H4161       H  0.80952301  0.41614043  0.73201421     0.17900
N4162       N  0.92148125  0.35833346  0.71781422    -0.88800
H4163       H  0.75236783  0.36593162  0.82588376     0.35300
H4164       H  0.77028768  0.39647093  0.80489040     0.40400
H4165       H  0.89635532  0.34959966  0.72684563     0.40000
H4166       H  0.91729923  0.37870717  0.70569699     0.34900
C4167       C  0.77800274  0.11626895  0.70973503    -0.26800
C4168       C  0.88361180  0.09754121  0.73205103    -0.14900
C4169       C  0.86394601  0.11417081  0.75635922     0.35700
C4170       C  0.87299786  0.14552039  0.76095471    -0.26300
C4171       C  0.77671698  0.16184333  0.74193896    -0.15500
C4172       C  0.79111923  0.14598318  0.71505089     0.36800
N4173       N  0.81762846  0.16064399  0.69248696    -0.89800
H4174       H  0.78799854  0.10488411  0.68851694     0.17900
H4175       H  0.85779019  0.15842335  0.77941148     0.17900
N4176       N  0.83460825  0.09944051  0.77582892    -0.88800
H4177       H  0.82369517  0.14652914  0.67318943     0.35300
H4178       H  0.84096654  0.16234327  0.70205413     0.40400
H4179       H  0.81551980  0.09374691  0.76213391     0.40000
H4180       H  0.82259740  0.11506055  0.79228129     0.34900
C4181       C  0.90327758  0.24062835  0.64824735    -0.26800
C4182       C  0.79951504  0.26297375  0.66072809    -0.14900
C4183       C  0.81917695  0.28670556  0.64287158     0.35700
C4184       C  0.81671145  0.28929004  0.61160017    -0.26300
C4185       C  0.79544701  0.26888295  0.59756367    -0.15500
C4186       C  0.90109860  0.24310650  0.61688288     0.36800
N4187       N  0.87987852  0.22079397  0.60379381    -0.89800
H4188       H  0.88892673  0.22198197  0.66174811     0.17900
H4189       H  0.83124197  0.30780348  0.59817869     0.17900
N4190       N  0.84099153  0.30911241  0.65553564    -0.88800
H4191       H  0.86060704  0.23267557  0.59386872     0.35300
H4192       H  0.89625543  0.20884322  0.58656586     0.40400
H4193       H  0.83060449  0.33122035  0.65245148     0.40000
H4194       H  0.71571293  0.30433552  0.68043872     0.34900
C4195       C  0.78235059  0.25875775  0.86354303    -0.26800
C4196       C  0.80162290  0.23915442  0.84169530    -0.14900
C4197       C  0.82044706  0.21385521  0.85188978     0.35700
C4198       C  0.82017744  0.20916417  0.88343076    -0.26300
C4199       C  0.80143274  0.22891901  0.90541638    -0.15500
C4200       C  0.78207096  0.25397826  0.89532051     0.36800
N4201       N  0.88531334  0.27297631  0.91822674    -0.89800
H4202       H  0.89047145  0.27560118  0.85679910     0.17900
H4203       H  0.83506228  0.18983612  0.89083089     0.17900
N4204       N  0.83845174  0.19203379  0.83038268    -0.88800
H4205       H  0.87165849  0.28932651  0.90684749     0.35300
H4206       H  0.86603311  0.25893621  0.93132052     0.40400
H4207       H  0.86141740  0.20297150  0.81909100     0.40000
H4208       H  0.72802217  0.17515739  0.84396665     0.34900
C4209       C  0.73456559  0.99404272  0.64516224    -0.26800
C4210       C  0.86342603  0.01949357  0.65612788    -0.14900
C4211       C  0.84293090  0.03875813  0.63965710     0.35700
C4212       C  0.83967472  0.03168687  0.60924380    -0.26300
C4213       C  0.85664485  0.00585399  0.59469597    -0.15500
C4214       C  0.75279207  0.48742268  0.60962816     0.36800
N4215       N  0.77015245  0.45983042  0.59668429    -0.89800
H4216       H  0.76992188  0.47903704  0.65330723     0.17900
H4217       H  0.82423539  0.04676606  0.59657937     0.17900
N4218       N  0.82469991  0.06507678  0.65420902    -0.88800
H4219       H  0.79746000  0.46278073  0.59620735     0.35300
H4220       H  0.76601071  0.45628718  0.57412356     0.40400
H4221       H  0.80597787  0.05618555  0.67209923     0.40000
H4222       H  0.81050398  0.07672260  0.63911703     0.34900
C4223       C  0.74459980  0.50882359  0.89186093    -0.26800
C4224       C  0.84816967  0.48859089  0.91094514    -0.14900
C4225       C  0.82352172  0.46845842  0.90012925     0.35700
C4226       C  0.82268257  0.46673944  0.86852676    -0.26300
C4227       C  0.84623239  0.48419721  0.84713306    -0.15500
C4228       C  0.74471252  0.50587032  0.85996929     0.36800
N4229       N  0.76855074  0.52453937  0.83853777    -0.89800
H4230       H  0.76212264  0.52569352  0.90001826     0.17900
H4231       H  0.80399248  0.45090721  0.86042228     0.17900
N4232       N  0.80046610  0.44871349  0.92108529    -0.88800
H4233       H  0.78489375  0.53821584  0.85010184     0.35300
H4234       H  0.75314860  0.54008733  0.82792762     0.40400
H4235       H  0.81666573  0.43247691  0.92988618     0.40000
H4236       H  0.78324929  0.43598797  0.90954307     0.34900
C4237       C  0.86800876  0.35942768  0.54403487    -0.26800
C4238       C  0.76889298  0.34439821  0.52129435    -0.14900
C4239       C  0.78595295  0.36114862  0.49539805     0.35700
C4240       C  0.77656021  0.39238443  0.49115648    -0.26300
C4241       C  0.75012906  0.40694495  0.51190921    -0.15500
C4242       C  0.85804392  0.39015071  0.53870051     0.36800
N4243       N  0.83217057  0.40539689  0.56081417    -0.89800
H4244       H  0.85560660  0.34731271  0.56461763     0.17900
H4245       H  0.79004919  0.40550491  0.47169492     0.17900
N4246       N  0.81325625  0.34672308  0.47400398    -0.88800
H4247       H  0.82458436  0.39104494  0.58007925     0.35300
H4248       H  0.80933188  0.40844835  0.55078349     0.40400
H4249       H  0.83434138  0.34152965  0.48571786     0.40000
H4250       H  0.69831999  0.36080879  0.45649278     0.34900
C4251       C  0.81277923  0.09555247  0.97318194    -0.26800
C4252       C  0.83289085  0.08837123  0.99623173    -0.14900
C4253       C  0.71849474  0.11161383  0.01365074     0.35700
C4254       C  0.70912716  0.14277324  0.00850295    -0.26300
C4255       C  0.81616995  0.15090884  0.98410573    -0.15500
C4256       C  0.80432521  0.12640743  0.96681231     0.36800
N4257       N  0.78385000  0.13282583  0.94269986    -0.89800
H4258       H  0.80398756  0.07687011  0.95971639     0.17900
H4259       H  0.71723439  0.16104014  0.02278592     0.17900
N4260       N  0.73187516  0.10338891  0.53948859    -0.88800
H4261       H  0.77710720  0.11220464  0.93247313     0.35300
H4262       H  0.76000590  0.14289229  0.95268038     0.40400
H4263       H  0.75715731  0.09538670  0.53052684     0.40000
H4264       H  0.73564284  0.12333712  0.55206579     0.34900
O4265       O  0.83518739  0.94960791  0.01518497    -0.72300
O4266       O  0.81745563  0.53484808  0.49990518    -0.72500
O4267       O  0.82253821  0.98566410  0.46757731    -0.72400
O4268       O  0.82433833  0.49839564  0.04902123    -0.72400
O4269       O  0.75673967  0.50286501  0.04144159    -0.72300
O4270       O  0.75353116  0.00006702  0.45568964    -0.72400
O4271       O  0.74785323  0.54680132  0.49776399    -0.72300
O4272       O  0.76610184  0.95812822  0.99859641    -0.72500
V4273       V  0.82675394  0.99265263  0.00944616     1.35200
V4274       V  0.75675791  0.50301403  0.49798111     1.35200
C4275       C  0.74113382  0.93904679  0.00746832     0.76900
C4276       C  0.84204000  0.55489383  0.49682392     0.77000
C4277       C  0.84916986  0.99238264  0.44761867     0.76900
C4278       C  0.72890297  0.50172948  0.06105818     0.76800
C4279       C  0.80692040  0.68325326  0.47732229     0.79700
N4280       N  0.80113361  0.70503741  0.49973441    -0.78600
C4281       C  0.79528433  0.73529989  0.49227478     0.82200
N4282       N  0.79561759  0.74368193  0.46231055    -0.77500
C4283       C  0.80192291  0.72202024  0.43988032     0.82200
N4284       N  0.80761427  0.69214279  0.44772365    -0.80300
C4285       C  0.77711155  0.81138264  0.03056103     0.79700
N4286       N  0.78163632  0.78897023  0.00876282    -0.78600
C4287       C  0.78962170  0.75928105  0.01630883     0.82200
N4288       N  0.79331364  0.75216501  0.04582319    -0.78500
C4289       C  0.78908926  0.77461519  0.06763455     0.82200
N4290       N  0.78095215  0.80404346  0.05983230    -0.80300
O4291       O  0.90147789  0.75441357  0.29987649    -0.72300
O4292       O  0.89880485  0.75771008  0.21392115    -0.72500
O4293       O  0.88910354  0.71264624  0.25715031    -0.72400
O4294       O  0.91096437  0.79923739  0.25624917    -0.72400
O4295       O  0.84135127  0.78796548  0.25351035    -0.72300
O4296       O  0.81992818  0.70297821  0.24170484    -0.72400
O4297       O  0.83059708  0.75328327  0.20515942    -0.72300
O4298       O  0.83057535  0.73749357  0.29010602    -0.72500
V4299       V  0.90102580  0.75576330  0.25667212     1.35200
V4300       V  0.82965105  0.74564061  0.24784562     1.35200
C4301       C  0.80373439  0.74337978  0.30977026     0.76900
C4302       C  0.80166511  0.75757912  0.19530612     0.77000
C4303       C  0.78830420  0.69310537  0.24729492     0.76900
C4304       C  0.81711745  0.80808829  0.25678020     0.76800
C4305       C  0.86706115  0.56837161  0.22308364     0.79700
N4306       N  0.86218457  0.54579874  0.24525401    -0.78600
C4307       C  0.85485019  0.51594065  0.23813339     0.82200
N4308       N  0.85267369  0.50861690  0.20847873    -0.78500
C4309       C  0.85711646  0.53105414  0.18611675     0.82200
N4310       N  0.86441005  0.56078333  0.19364316    -0.80300
C4311       C  0.84711455  0.93679080  0.27978623     0.79700
N4312       N  0.85272909  0.95909556  0.25741838    -0.78600
C4313       C  0.85778192  0.98935863  0.26480178     0.82200
N4314       N  0.85683019  0.99728425  0.29478899    -0.78500
C4315       C  0.85070320  0.97510096  0.31729885     0.82200
N4316       N  0.84581953  0.94510336  0.30948763    -0.80300
C4317       C  0.84568945  0.84840451  0.28400846    -0.26800
C4318       C  0.82565162  0.84106387  0.26099873    -0.14900
C4319       C  0.81427619  0.86504630  0.24278212     0.35700
C4320       C  0.82278874  0.89621000  0.24845667    -0.26300
C4321       C  0.84171503  0.90369855  0.27236187    -0.15500
C4322       C  0.85366715  0.87942580  0.29009049     0.36800
N4323       N  0.74612966  0.88841106  0.31331165    -0.89800
H4324       H  0.72813432  0.83151006  0.29706491     0.17900
H4325       H  0.81363440  0.91476001  0.23484290     0.17900
N4326       N  0.91994517  0.85703540  0.21597034    -0.88800
H4327       H  0.75297558  0.86812845  0.32430319     0.35300
H4328       H  0.76995228  0.89917810  0.30359546     0.40400
H4329       H  0.89559052  0.84722313  0.22566774     0.40000
H4330       H  0.91402573  0.87708706  0.20412634     0.34900
C4331       C  0.78651415  0.61399163  0.21037454    -0.26800
C4332       C  0.87816108  0.60039496  0.23025361    -0.14900
C4333       C  0.86641061  0.61446589  0.25888059     0.35700
C4334       C  0.87873668  0.64455625  0.26452538    -0.26300
C4335       C  0.77959657  0.66024314  0.24188057    -0.15500
C4336       C  0.79657344  0.64465339  0.21562593     0.36800
N4337       N  0.82268011  0.66041852  0.19353001    -0.89800
H4338       H  0.79967307  0.60211285  0.19043074     0.17900
H4339       H  0.86910472  0.65571182  0.28609506     0.17900
N4340       N  0.84137356  0.59860360  0.28175669    -0.88800
H4341       H  0.83053816  0.64632363  0.17447700     0.35300
H4342       H  0.84533512  0.66379223  0.20369868     0.40400
H4343       H  0.81768195  0.59604999  0.27284622     0.40000
H4344       H  0.83549792  0.61217535  0.30145696     0.34900
C4345       C  0.90545814  0.74108464  0.14747996    -0.26800
C4346       C  0.80059885  0.76138467  0.16226839    -0.14900
C4347       C  0.81871381  0.78597596  0.14455884     0.35700
C4348       C  0.81511239  0.78898490  0.11353693    -0.26300
C4349       C  0.79433478  0.76803673  0.09956646    -0.15500
C4350       C  0.90359327  0.74419174  0.11611828     0.36800
N4351       N  0.88126143  0.72309550  0.10272178    -0.89800
H4352       H  0.89018555  0.72277313  0.16074190     0.17900
H4353       H  0.82848281  0.80816408  0.10024559     0.17900
N4354       N  0.84007932  0.80878569  0.15717038    -0.88800
H4355       H  0.86276871  0.73603195  0.09281741     0.35300
H4356       H  0.89702694  0.71074218  0.08541474     0.40400
H4357       H  0.82841153  0.83055809  0.15518619     0.40000
H4358       H  0.71776946  0.80439972  0.18084128     0.34900
C4359       C  0.78361407  0.75787679  0.36436157    -0.26800
C4360       C  0.80455669  0.73882628  0.34301037    -0.14900
C4361       C  0.82521356  0.71513961  0.35378208     0.35700
C4362       C  0.82467290  0.71128008  0.38541711    -0.26300
C4363       C  0.80346954  0.72994867  0.40686958    -0.15500
C4364       C  0.78278579  0.75368745  0.39623340     0.36800
N4365       N  0.88823313  0.77514590  0.41765922    -0.89800
H4366       H  0.89476963  0.77816671  0.35614157     0.17900
H4367       H  0.84072962  0.69308558  0.39338547     0.17900
N4368       N  0.84491858  0.69371602  0.33285662    -0.88800
H4369       H  0.87592069  0.79228841  0.40607294     0.35300
H4370       H  0.86786199  0.76172784  0.43016645     0.40400
H4371       H  0.86687485  0.70565559  0.32108526     0.40000
H4372       H  0.72462446  0.67389728  0.34451664     0.34900
C4373       C  0.75406025  0.49345241  0.14091393    -0.26800
C4374       C  0.85545914  0.52305631  0.15358129    -0.14900
C4375       C  0.84208829  0.54427103  0.13360015     0.35700
C4376       C  0.84114470  0.53622070  0.10305752    -0.26300
C4377       C  0.85424368  0.50767611  0.09145631    -0.15500
C4378       C  0.74524562  0.98730118  0.11214603     0.36800
N4379       N  0.76085995  0.95815905  0.10153891    -0.89800
H4380       H  0.75498558  0.97865086  0.15830042     0.17900
H4381       H  0.83055136  0.55272482  0.08808964     0.17900
N4382       N  0.82891558  0.57399168  0.14417915    -0.88800
H4383       H  0.78778199  0.95912695  0.10364605     0.35300
H4384       H  0.75960574  0.95465976  0.07832686     0.40400
H4385       H  0.80254732  0.57561336  0.14048343     0.40000
H4386       H  0.84367880  0.59122738  0.13079350     0.34900
C4387       C  0.74700186  0.00664490  0.39107012    -0.26800
C4388       C  0.84790822  0.98928953  0.41430711    -0.14900
C4389       C  0.82579014  0.96692069  0.40341557     0.35700
C4390       C  0.82608998  0.96411176  0.37171775    -0.26300
C4391       C  0.84852843  0.98263339  0.35034215    -0.15500
C4392       C  0.74601740  0.00459016  0.35923758     0.36800
N4393       N  0.77015218  0.02281897  0.33763906    -0.89800
H4394       H  0.76542442  0.02273028  0.39915452     0.17900
H4395       H  0.80922752  0.94664245  0.36360040     0.17900
N4396       N  0.80433892  0.94607509  0.42444612    -0.88800
H4397       H  0.78737341  0.03571357  0.34902627     0.35300
H4398       H  0.75511894  0.03904802  0.32747745     0.40400
H4399       H  0.82176959  0.93173522  0.43417820     0.40000
H4400       H  0.78908295  0.93141208  0.41279425     0.34900
C4401       C  0.86802982  0.85822547  0.04345300    -0.26800
C4402       C  0.76722517  0.84347426  0.02313281    -0.14900
C4403       C  0.78460188  0.85981106  0.99708209     0.35700
C4404       C  0.77508346  0.89085551  0.99205529    -0.26300
C4405       C  0.74845532  0.90572841  0.01233579    -0.15500
C4406       C  0.85696177  0.88875874  0.03861096     0.36800
N4407       N  0.82937930  0.90253766  0.06025993    -0.89800
H4408       H  0.85519796  0.84509827  0.06325451     0.17900
H4409       H  0.78870214  0.90360833  0.97240159     0.17900
N4410       N  0.81240328  0.84518336  0.97635533    -0.88800
H4411       H  0.82111150  0.88722576  0.07864364     0.35300
H4412       H  0.80733550  0.90563321  0.04918505     0.40400
H4413       H  0.83320944  0.84043150  0.98854116     0.40000
H4414       H  0.69863630  0.86261477  0.95671451     0.34900
C4415       C  0.81364608  0.59549578  0.46982062    -0.26800
C4416       C  0.83350783  0.58788892  0.49291671    -0.14900
C4417       C  0.71738198  0.61266761  0.51296004     0.35700
C4418       C  0.70698883  0.64357544  0.50808266    -0.26300
C4419       C  0.81343293  0.65010240  0.48419761    -0.15500
C4420       C  0.80347764  0.62623833  0.46516588     0.36800
N4421       N  0.78313067  0.63323505  0.44109071    -0.89800
H4422       H  0.80616793  0.57724038  0.45517824     0.17900
H4423       H  0.71499725  0.66201948  0.52221377     0.17900
N4424       N  0.73459841  0.60465303  0.03981700    -0.88800
H4425       H  0.77803500  0.61304414  0.42936428     0.35300
H4426       H  0.75849642  0.64161629  0.45137081     0.40400
H4427       H  0.75918048  0.59574244  0.03007821     0.40000
H4428       H  0.73997317  0.62484577  0.05141519     0.34900
O4429       O  0.83334562  0.94938410  0.51548358    -0.72300
O4430       O  0.81381152  0.53380431  0.00081212    -0.72500
O4431       O  0.82546453  0.98600725  0.96703715    -0.72400
O4432       O  0.82766223  0.50028158  0.54862555    -0.72400
O4433       O  0.75971040  0.50430930  0.54051662    -0.72300
O4434       O  0.75575811  0.00018832  0.95472294    -0.72400
O4435       O  0.74425395  0.54608150  0.99979815    -0.72300
O4436       O  0.76387979  0.95804228  0.49977059    -0.72500
V4437       V  0.82446789  0.99227627  0.50994867     1.35200
V4438       V  0.75319880  0.50234592  0.99903095     1.35200
C4439       C  0.73910198  0.93880794  0.50885512     0.76900
C4440       C  0.83829761  0.55395784  0.99794956     0.77000
C4441       C  0.85244360  0.99233934  0.94733896     0.76900
C4442       C  0.73162723  0.50338709  0.55987271     0.76800
C4443       C  0.80423590  0.68273681  0.97787838     0.79700
N4444       N  0.79990030  0.70484108  0.00007949    -0.78600
C4445       C  0.79443423  0.73516472  0.99249446     0.82200
N4446       N  0.79370435  0.74328017  0.96260856    -0.77500
C4447       C  0.79855483  0.72133307  0.94037481     0.82200
N4448       N  0.80389174  0.69142148  0.94835405    -0.80300
C4449       C  0.77511712  0.81076873  0.53106828     0.79700
N4450       N  0.78075380  0.78869295  0.50898153    -0.78600
C4451       C  0.78895026  0.75900840  0.51636531     0.82200
N4452       N  0.79177263  0.75154306  0.54598164    -0.78500
C4453       C  0.78643729  0.77363124  0.56808085     0.82200
N4454       N  0.77811590  0.80307385  0.56045521    -0.80300
O4455       O  0.89819109  0.75485230  0.80030102    -0.72300
O4456       O  0.89659553  0.75898185  0.71424727    -0.72500
O4457       O  0.88698504  0.71352379  0.75705017    -0.72400
O4458       O  0.90786078  0.80029367  0.75710073    -0.72400
O4459       O  0.83872951  0.78716614  0.75381982    -0.72300
O4460       O  0.81672336  0.70234582  0.74266169    -0.72400
O4461       O  0.82798718  0.75211618  0.70565170    -0.72300
O4462       O  0.82723190  0.73711391  0.79078468    -0.72500
V4463       V  0.89836387  0.75671923  0.75703953     1.35200
V4464       V  0.82669260  0.74492757  0.74844352     1.35200
C4465       C  0.80029013  0.74319612  0.81027397     0.76900
C4466       C  0.79916102  0.75643388  0.69560931     0.77000
C4467       C  0.78504004  0.69265559  0.74799374     0.76900
C4468       C  0.81474966  0.80749783  0.75694609     0.76800
C4469       C  0.86728777  0.56924490  0.72349483     0.79700
N4470       N  0.86257524  0.54650599  0.74545628    -0.78600
C4471       C  0.85557422  0.51668443  0.73804058     0.82200
N4472       N  0.85364643  0.50956253  0.70829932    -0.78500
C4473       C  0.85782805  0.53224651  0.68618408     0.82200
N4474       N  0.86469417  0.56196229  0.69398274    -0.80300
C4475       C  0.84906558  0.93550833  0.77965109     0.79700
N4476       N  0.85437303  0.95785176  0.75726189    -0.78600
C4477       C  0.85989456  0.98808276  0.76455419     0.82200
N4478       N  0.85975026  0.99592086  0.79447739    -0.78500
C4479       C  0.85402564  0.97373752  0.81701105     0.82200
N4480       N  0.84860897  0.94379812  0.80928088    -0.80300
C4481       C  0.84345368  0.84712364  0.78482391    -0.26800
C4482       C  0.82382114  0.84031876  0.76139689    -0.14900
C4483       C  0.81399579  0.86457158  0.74269023     0.35700
C4484       C  0.82381831  0.89547338  0.74816982    -0.26300
C4485       C  0.84246104  0.90249206  0.77241570    -0.15500
C4486       C  0.85272995  0.87787558  0.79072614     0.36800
N4487       N  0.74613135  0.88911168  0.81191755    -0.89800
H4488       H  0.72714037  0.83232124  0.79635140     0.17900
H4489       H  0.81587750  0.91422468  0.73411489     0.17900
N4490       N  0.91741005  0.85853574  0.71684598    -0.88800
H4491       H  0.75330361  0.86880723  0.82268180     0.35300
H4492       H  0.76975826  0.89982940  0.80165367     0.40400
H4493       H  0.89293051  0.84890844  0.72645017     0.40000
H4494       H  0.91178884  0.87865572  0.70496148     0.34900
C4495       C  0.78498492  0.61309740  0.71180308    -0.26800
C4496       C  0.87841274  0.60105752  0.73091033    -0.14900
C4497       C  0.86506386  0.61557553  0.75893329     0.35700
C4498       C  0.87678856  0.64584743  0.76450874    -0.26300
C4499       C  0.77638984  0.65980568  0.74252784    -0.15500
C4500       C  0.79469723  0.64382651  0.71704422     0.36800
N4501       N  0.82188370  0.65922436  0.69566081    -0.89800
H4502       H  0.79925478  0.60085629  0.69258023     0.17900
H4503       H  0.86579469  0.65745980  0.78547451     0.17900
N4504       N  0.83908797  0.59996332  0.78121416    -0.88800
H4505       H  0.83042217  0.64495291  0.67687997     0.35300
H4506       H  0.84393477  0.66239749  0.70667616     0.40400
H4507       H  0.81609367  0.59702816  0.77135214     0.40000
H4508       H  0.83211255  0.61387822  0.80054296     0.34900
C4509       C  0.90384095  0.74147463  0.64812623    -0.26800
C4510       C  0.79829872  0.75996411  0.66252682    -0.14900
C4511       C  0.81621457  0.78467004  0.64487514     0.35700
C4512       C  0.81248901  0.78777252  0.61391161    -0.26300
C4513       C  0.79167873  0.76686887  0.59995570    -0.15500
C4514       C  0.90173663  0.74423771  0.61678975     0.36800
N4515       N  0.87985770  0.72256731  0.60360164    -0.89800
H4516       H  0.88901946  0.72302138  0.66154869     0.17900
H4517       H  0.82574939  0.80704024  0.60065135     0.17900
N4518       N  0.83744954  0.80756220  0.65751065    -0.88800
H4519       H  0.86092905  0.73502653  0.59377379     0.35300
H4520       H  0.89584959  0.71044384  0.58625786     0.40400
H4521       H  0.82554757  0.82925768  0.65570109     0.40000
H4522       H  0.71354436  0.80591252  0.68147335     0.34900
C4523       C  0.78071757  0.75801740  0.86492993    -0.26800
C4524       C  0.80077903  0.73843445  0.84352322    -0.14900
C4525       C  0.82042017  0.71398315  0.85419822     0.35700
C4526       C  0.81961577  0.70971721  0.88580349    -0.26300
C4527       C  0.79955363  0.72907434  0.90735084    -0.15500
C4528       C  0.77999544  0.75370494  0.89679928     0.36800
N4529       N  0.88476420  0.77411647  0.91869464    -0.89800
H4530       H  0.89102760  0.77791837  0.85718897     0.17900
H4531       H  0.83491031  0.69089377  0.89364150     0.17900
N4532       N  0.83974368  0.69249612  0.83311223    -0.88800
H4533       H  0.87217767  0.79128947  0.90737754     0.35300
H4534       H  0.86460830  0.76054847  0.93130127     0.40400
H4535       H  0.86229967  0.70413205  0.82192796     0.40000
H4536       H  0.72117887  0.67322748  0.84393321     0.34900
C4537       C  0.75462878  0.49409791  0.64052060    -0.26800
C4538       C  0.85693183  0.52448433  0.65355476    -0.14900
C4539       C  0.84122008  0.54463436  0.63414193     0.35700
C4540       C  0.84110005  0.53681768  0.60341931    -0.26300
C4541       C  0.85739061  0.50965428  0.59112125    -0.15500
C4542       C  0.73530073  0.98613540  0.61420338     0.36800
N4543       N  0.74408941  0.95467414  0.60509412    -0.89800
H4544       H  0.74099747  0.97630249  0.66104302     0.17900
H4545       H  0.82859901  0.55243051  0.58888044     0.17900
N4546       N  0.82487741  0.57297783  0.64550008    -0.88800
H4547       H  0.77025698  0.95074724  0.60845056     0.35300
H4548       H  0.74350033  0.95141777  0.58174051     0.40400
H4549       H  0.79842718  0.57249676  0.64186646     0.40000
H4550       H  0.83768830  0.59148497  0.63254718     0.34900
C4551       C  0.74998663  0.00575273  0.89005107    -0.26800
C4552       C  0.85158678  0.98875322  0.91398928    -0.14900
C4553       C  0.82952394  0.96619727  0.90328625     0.35700
C4554       C  0.82994104  0.96294196  0.87161779    -0.26300
C4555       C  0.85228236  0.98132599  0.85004809    -0.15500
C4556       C  0.74887719  0.00350414  0.85826620     0.36800
N4557       N  0.77447359  0.01998147  0.83636246    -0.89800
H4558       H  0.76959617  0.02080127  0.89787101     0.17900
H4559       H  0.81308934  0.94534303  0.86369528     0.17900
N4560       N  0.80791390  0.94566058  0.92452332    -0.88800
H4561       H  0.79266341  0.03191030  0.84754048     0.35300
H4562       H  0.76086719  0.03699392  0.82578499     0.40400
H4563       H  0.82526386  0.93148373  0.93453492     0.40000
H4564       H  0.79270234  0.93081678  0.91301404     0.34900
C4565       C  0.86623800  0.85857642  0.54416456    -0.26800
C4566       C  0.76523330  0.84294629  0.52378569    -0.14900
C4567       C  0.78283008  0.85960018  0.49801739     0.35700
C4568       C  0.77356158  0.89081680  0.49342027    -0.26300
C4569       C  0.74664251  0.90545445  0.51362254    -0.15500
C4570       C  0.85572777  0.88927077  0.53936218     0.36800
N4571       N  0.82942473  0.90378883  0.56166750    -0.89800
H4572       H  0.85378087  0.84583764  0.56437989     0.17900
H4573       H  0.78747494  0.90383449  0.47405366     0.17900
N4574       N  0.81048043  0.84507357  0.47705331    -0.88800
H4575       H  0.82194644  0.88897319  0.58059876     0.35300
H4576       H  0.80663133  0.90682931  0.55157050     0.40400
H4577       H  0.83127087  0.83994284  0.48913292     0.40000
H4578       H  0.69455949  0.86126322  0.45594991     0.34900
C4579       C  0.81029821  0.59472417  0.97073005    -0.26800
C4580       C  0.82973164  0.58700630  0.99408885    -0.14900
C4581       C  0.71522688  0.61213230  0.01524872     0.35700
C4582       C  0.70621300  0.64326261  0.00959376    -0.26300
C4583       C  0.81048676  0.64946252  0.98484744    -0.15500
C4584       C  0.80056790  0.62555646  0.96579147     0.36800
N4585       N  0.78072195  0.63256536  0.94137722    -0.89800
H4586       H  0.80288136  0.57648268  0.95604308     0.17900
H4587       H  0.71527504  0.66175717  0.02310103     0.17900
N4588       N  0.73675571  0.60528069  0.53754078    -0.88800
H4589       H  0.77575835  0.61237540  0.92959441     0.35300
H4590       H  0.75600296  0.64103078  0.95134077     0.40400
H4591       H  0.76179380  0.59736066  0.52775847     0.40000
H4592       H  0.74109174  0.62536239  0.54972368     0.34900
O4593       O  0.95814729  0.44978191  0.01542455    -0.72300
O4594       O  0.93831317  0.03454055  0.50206246    -0.72500
O4595       O  0.95166315  0.48690170  0.46673404    -0.72400
O4596       O  0.95184208  0.99868026  0.05008551    -0.72400
O4597       O  0.88366719  0.00317466  0.04265855    -0.72300
O4598       O  0.88125141  0.50047459  0.45342568    -0.72400
O4599       O  0.86935943  0.04590874  0.50004693    -0.72300
O4600       O  0.88897299  0.45760940  0.99664384    -0.72500
V4601       V  0.94980369  0.49285064  0.01000717     1.35200
V4602       V  0.87846509  0.00216954  0.49982010     1.35200
C4603       C  0.86439307  0.43836763  0.00624827     0.76900
C4604       C  0.96251021  0.05493928  0.49876774     0.77000
C4605       C  0.97859298  0.49312562  0.44695281     0.76900
C4606       C  0.85551889  0.00207875  0.06194920     0.76800
C4607       C  0.92653281  0.18297166  0.47775813     0.79700
N4608       N  0.92279437  0.20513510  0.49985571    -0.78600
C4609       C  0.91756303  0.23545551  0.49229838     0.82200
N4610       N  0.91649101  0.24358475  0.46247423    -0.77500
C4611       C  0.92068715  0.22157175  0.44028475     0.82200
N4612       N  0.92578575  0.19158112  0.44825218    -0.80300
C4613       C  0.90459279  0.31199096  0.02943365     0.79700
N4614       N  0.90971481  0.28954922  0.00772205    -0.78600
C4615       C  0.91819341  0.26005793  0.01538800     0.82200
N4616       N  0.92161670  0.25308231  0.04497619    -0.78500
C4617       C  0.91680903  0.27557299  0.06670511     0.82200
N4618       N  0.90824879  0.30484885  0.05880378    -0.80300
O4619       O  0.02071461  0.25492358  0.29979036    -0.72300
O4620       O  0.01893820  0.25921060  0.21376270    -0.72500
O4621       O  0.00867761  0.21381418  0.25663280    -0.72400
O4622       O  0.03086514  0.30027813  0.25668182    -0.72400
O4623       O  0.96166717  0.28862829  0.25435612    -0.72300
O4624       O  0.94008139  0.20391755  0.24227065    -0.72400
O4625       O  0.95176525  0.25408142  0.20582140    -0.72300
O4626       O  0.94980967  0.23833504  0.29087654    -0.72500
V4627       V  0.02074586  0.25686056  0.25655949     1.35200
V4628       V  0.94981883  0.24647299  0.24853820     1.35200
C4629       C  0.92261057  0.24406237  0.31019008     0.76900
C4630       C  0.92332864  0.25893924  0.19539836     0.77000
C4631       C  0.90842177  0.19415711  0.24712540     0.76900
C4632       C  0.93765760  0.30891072  0.25749246     0.76800
C4633       C  0.98958499  0.06838354  0.22476253     0.79700
N4634       N  0.98513406  0.04582962  0.24696359    -0.78600
C4635       C  0.97886801  0.01576591  0.23969022     0.82200
N4636       N  0.97724229  0.00831879  0.20997350    -0.78500
C4637       C  0.98118739  0.03080859  0.18770096     0.82200
N4638       N  0.98755627  0.06065561  0.19527988    -0.80300
C4639       C  0.97305037  0.43651109  0.28001606     0.79700
N4640       N  0.97878935  0.45866497  0.25750842    -0.78600
C4641       C  0.98483949  0.48881247  0.26465706     0.82200
N4642       N  0.98482219  0.49680200  0.29448953    -0.78500
C4643       C  0.97865968  0.47480773  0.31711514     0.82200
N4644       N  0.97269602  0.44492589  0.30957800    -0.80300
C4645       C  0.96564223  0.34834582  0.28597956    -0.26800
C4646       C  0.94671050  0.34164709  0.26207913    -0.14900
C4647       C  0.93798217  0.36583956  0.24279075     0.35700
C4648       C  0.94805843  0.39665335  0.24826030    -0.26300
C4649       C  0.96601630  0.40358573  0.27295743    -0.15500
C4650       C  0.97531203  0.37899009  0.29177750     0.36800
N4651       N  0.87009274  0.38855077  0.31141726    -0.89800
H4652       H  0.85103531  0.33176713  0.29579979     0.17900
H4653       H  0.94093615  0.41539275  0.23377469     0.17900
N4654       N  0.04118484  0.35822036  0.21656934    -0.88800
H4655       H  0.87723180  0.36823870  0.32218803     0.35300
H4656       H  0.89373806  0.39934156  0.30132056     0.40400
H4657       H  0.01652265  0.34883444  0.22604275     0.40000
H4658       H  0.03592522  0.37835969  0.20454725     0.34900
C4659       C  0.90920673  0.11417326  0.21161185    -0.26800
C4660       C  0.00003052  0.10053928  0.23169584    -0.14900
C4661       C  0.98582484  0.11573404  0.25910978     0.35700
C4662       C  0.99711921  0.14631221  0.26411059    -0.26300
C4663       C  0.90008694  0.16118693  0.24183938    -0.15500
C4664       C  0.91821878  0.14524321  0.21627849     0.36800
N4665       N  0.94443639  0.16099442  0.19425400    -0.89800
H4666       H  0.92334913  0.10200486  0.19229317     0.17900
H4667       H  0.98558503  0.15838458  0.28464629     0.17900
N4668       N  0.95959288  0.10042565  0.28139347    -0.88800
H4669       H  0.95290131  0.14664490  0.17551866     0.35300
H4670       H  0.96678202  0.16493072  0.20470204     0.40400
H4671       H  0.93707762  0.09659233  0.27110696     0.40000
H4672       H  0.95175534  0.11494077  0.30012585     0.34900
C4673       C  0.02704116  0.24037248  0.14734894    -0.26800
C4674       C  0.92342494  0.26287868  0.16222281    -0.14900
C4675       C  0.94431096  0.28599129  0.14448297     0.35700
C4676       C  0.94242121  0.28872187  0.11310549    -0.26300
C4677       C  0.92069895  0.26892340  0.09887437    -0.15500
C4678       C  0.02508103  0.24290640  0.11593439     0.36800
N4679       N  0.00435880  0.22039674  0.10257353    -0.89800
H4680       H  0.01294816  0.22149845  0.16069363     0.17900
H4681       H  0.95785919  0.30678597  0.09975814     0.17900
N4682       N  0.96689248  0.30758335  0.15734326    -0.88800
H4683       H  0.98498820  0.23209055  0.09260596     0.35300
H4684       H  0.02104709  0.20876359  0.08531376     0.40400
H4685       H  0.95761111  0.33005932  0.15404587     0.40000
H4686       H  0.83717704  0.30622900  0.18085879     0.34900
C4687       C  0.90270968  0.25850219  0.36495711    -0.26800
C4688       C  0.92286808  0.23906181  0.34346819    -0.14900
C4689       C  0.94269722  0.21468004  0.35407351     0.35700
C4690       C  0.94182005  0.21024282  0.38567119    -0.26300
C4691       C  0.92163160  0.22942331  0.40728475    -0.15500
C4692       C  0.90206005  0.25410129  0.39682055     0.36800
N4693       N  0.00881640  0.27435453  0.41806470    -0.89800
H4694       H  0.01477412  0.27819732  0.35660542     0.17900
H4695       H  0.95720438  0.19145433  0.39345918     0.17900
N4696       N  0.96230748  0.19341937  0.33291781    -0.88800
H4697       H  0.99676441  0.29191750  0.40679530     0.35300
H4698       H  0.98824900  0.26124141  0.43069460     0.40400
H4699       H  0.98473514  0.20525310  0.32178736     0.40000
H4700       H  0.84454972  0.17265192  0.34249390     0.34900
C4701       C  0.87913244  0.99366350  0.14235745    -0.26800
C4702       C  0.98025805  0.02284357  0.15516612    -0.14900
C4703       C  0.96451142  0.04294661  0.13573704     0.35700
C4704       C  0.96455867  0.03518124  0.10502732    -0.26300
C4705       C  0.98109086  0.00815659  0.09273610    -0.15500
C4706       C  0.86814495  0.48624787  0.11105655     0.36800
N4707       N  0.88166924  0.45630635  0.10071398    -0.89800
H4708       H  0.87870155  0.47757052  0.15694734     0.17900
H4709       H  0.95207136  0.05078470  0.09046537     0.17900
N4710       N  0.94807814  0.07127048  0.14702726    -0.88800
H4711       H  0.90877903  0.45607101  0.10216761     0.35300
H4712       H  0.87944421  0.45262187  0.07771453     0.40400
H4713       H  0.92172047  0.07082721  0.14314706     0.40000
H4714       H  0.96101397  0.08978896  0.13417950     0.34900
C4715       C  0.87330754  0.50675154  0.38910123    -0.26800
C4716       C  0.97748042  0.48960413  0.41372702    -0.14900
C4717       C  0.95513350  0.46717627  0.40324163     0.35700
C4718       C  0.95498622  0.46415500  0.37167427    -0.26300
C4719       C  0.97721272  0.48250447  0.35001378    -0.15500
C4720       C  0.87160221  0.50472463  0.35739110     0.36800
N4721       N  0.89489727  0.52341597  0.33555069    -0.89800
H4722       H  0.89159792  0.52316050  0.39689804     0.17900
H4723       H  0.93787770  0.44667699  0.36389605     0.17900
N4724       N  0.93381746  0.44652580  0.42458165    -0.88800
H4725       H  0.91232215  0.53640190  0.34664123     0.35300
H4726       H  0.87923678  0.53957132  0.32597626     0.40400
H4727       H  0.95132285  0.43230197  0.43436313     0.40000
H4728       H  0.91840877  0.43173558  0.41320299     0.34900
C4729       C  0.98855284  0.35768366  0.04268181    -0.26800
C4730       C  0.89345204  0.34365916  0.02189224    -0.14900
C4731       C  0.90898958  0.35974519  0.99501591     0.35700
C4732       C  0.89841053  0.39047038  0.98999331    -0.26300
C4733       C  0.87226186  0.40514011  0.01090392    -0.15500
C4734       C  0.97871410  0.38865645  0.03833885     0.36800
N4735       N  0.95158069  0.40277893  0.06017461    -0.89800
H4736       H  0.97486965  0.34447227  0.06205042     0.17900
H4737       H  0.91075045  0.40310459  0.96978472     0.17900
N4738       N  0.93591951  0.34518994  0.97335180    -0.88800
H4739       H  0.94289996  0.38741159  0.07841913     0.35300
H4740       H  0.92960480  0.40658591  0.04918483     0.40400
H4741       H  0.95785874  0.34121539  0.98437517     0.40000
H4742       H  0.82226508  0.36317915  0.95656675     0.34900
C4743       C  0.93349096  0.09495754  0.47144727    -0.26800
C4744       C  0.95336988  0.08779954  0.49466363    -0.14900
C4745       C  0.83871042  0.11187501  0.51534076     0.35700
C4746       C  0.82937218  0.14285393  0.50939818    -0.26300
C4747       C  0.93317843  0.14985061  0.48490575    -0.15500
C4748       C  0.92336275  0.12561570  0.46620698     0.36800
N4749       N  0.90337750  0.13212728  0.44177811    -0.89800
H4750       H  0.92616772  0.07643625  0.45703001     0.17900
H4751       H  0.83742167  0.16147331  0.52330477     0.17900
N4752       N  0.86338322  0.10524038  0.03880917    -0.88800
H4753       H  0.89828303  0.11169126  0.43043236     0.35300
H4754       H  0.87873551  0.14078156  0.45165034     0.40400
H4755       H  0.88779619  0.09582950  0.02935051     0.40000
H4756       H  0.86912287  0.12559470  0.04998764     0.34900
O4757       O  0.96116649  0.45061680  0.51486755    -0.72300
O4758       O  0.94156528  0.03478874  0.00237986    -0.72500
O4759       O  0.94861547  0.48666248  0.96748598    -0.72400
O4760       O  0.94929052  0.99945621  0.55034195    -0.72400
O4761       O  0.88215009  0.00313769  0.54217783    -0.72300
O4762       O  0.87765692  0.50039417  0.95377544    -0.72400
O4763       O  0.87235819  0.04593589  0.00008379    -0.72300
O4764       O  0.89214491  0.45842576  0.49718649    -0.72500
V4765       V  0.95319558  0.49364473  0.50903390     1.35200
V4766       V  0.88088817  0.00216184  0.00006317     1.35200
C4767       C  0.86737277  0.43945012  0.50704898     0.76900
C4768       C  0.96611581  0.05488844  0.99908712     0.77000
C4769       C  0.97560550  0.49322108  0.94785099     0.76900
C4770       C  0.85443579  0.00186014  0.56190487     0.76800
C4771       C  0.93312963  0.18346681  0.97741495     0.79700
N4772       N  0.92883236  0.20569283  0.99946115    -0.78600
C4773       C  0.92322230  0.23590631  0.99171801     0.82200
N4774       N  0.92217606  0.24380762  0.96184916    -0.77500
C4775       C  0.92696785  0.22174222  0.93974877     0.82200
N4776       N  0.93255762  0.19190248  0.94784208    -0.80300
C4777       C  0.90285590  0.31180972  0.53035895     0.79700
N4778       N  0.90651703  0.28939880  0.50858234    -0.78600
C4779       C  0.91366654  0.25952322  0.51608904     0.82200
N4780       N  0.91731541  0.25215788  0.54556690    -0.78500
C4781       C  0.91391290  0.27460794  0.56736875     0.82200
N4782       N  0.90663981  0.30424712  0.55958532    -0.80300
O4783       O  0.02361060  0.25531951  0.79894837    -0.72300
O4784       O  0.02176014  0.25896454  0.71288578    -0.72500
O4785       O  0.01194621  0.21375426  0.75599955    -0.72400
O4786       O  0.03344084  0.30035178  0.75547948    -0.72400
O4787       O  0.96419582  0.28782388  0.75391138    -0.72300
O4788       O  0.94189538  0.20306571  0.74179691    -0.72400
O4789       O  0.95325520  0.25339039  0.70540778    -0.72300
O4790       O  0.95277320  0.23727053  0.79024920    -0.72500
V4791       V  0.02362942  0.25688821  0.75568915     1.35200
V4792       V  0.95203247  0.24562821  0.74805737     1.35200
C4793       C  0.92593694  0.24310085  0.80991927     0.76900
C4794       C  0.92448528  0.25807778  0.69543444     0.77000
C4795       C  0.91018614  0.19336229  0.74708198     0.76900
C4796       C  0.94025084  0.30819930  0.75744047     0.76800
C4797       C  0.99263654  0.06871360  0.72427272     0.79700
N4798       N  0.98832167  0.04611561  0.74640318    -0.78600
C4799       C  0.98110030  0.01623300  0.73926046     0.82200
N4800       N  0.97839101  0.00898151  0.70968276    -0.78500
C4801       C  0.98225294  0.03153315  0.68743038     0.82200
N4802       N  0.98951998  0.06121384  0.69496027    -0.80300
C4803       C  0.97430623  0.43643859  0.78017758     0.79700
N4804       N  0.97974069  0.45861172  0.75763961    -0.78600
C4805       C  0.98499832  0.48892079  0.76474534     0.82200
N4806       N  0.98442126  0.49706742  0.79464133    -0.78500
C4807       C  0.97851039  0.47508710  0.81734075     0.82200
N4808       N  0.97340543  0.44500650  0.80980349    -0.80300
C4809       C  0.96882874  0.34796482  0.78553245    -0.26800
C4810       C  0.94940384  0.34106140  0.76196223    -0.14900
C4811       C  0.93985836  0.36529047  0.74307087     0.35700
C4812       C  0.94957469  0.39621817  0.74857527    -0.26300
C4813       C  0.96785999  0.40334827  0.77301724    -0.15500
C4814       C  0.97800249  0.37878712  0.79144648     0.36800
N4815       N  0.87178955  0.38952557  0.81064798    -0.89800
H4816       H  0.85315335  0.33259499  0.79500041     0.17900
H4817       H  0.94179830  0.41491665  0.73437054     0.17900
N4818       N  0.04279383  0.35829093  0.71550815    -0.88800
H4819       H  0.87942530  0.36925595  0.82118335     0.35300
H4820       H  0.89514939  0.40064355  0.80037106     0.40400
H4821       H  0.01828751  0.34875074  0.72518699     0.40000
H4822       H  0.03720200  0.37840805  0.70360543     0.34900
C4823       C  0.91128437  0.11262535  0.71272820    -0.26800
C4824       C  0.00349110  0.10074603  0.73119620    -0.14900
C4825       C  0.99018690  0.11558848  0.75903162     0.35700
C4826       C  0.00168926  0.14606304  0.76409607    -0.26300
C4827       C  0.90144088  0.16033695  0.74188873    -0.15500
C4828       C  0.92041757  0.14372367  0.71714770     0.36800
N4829       N  0.94762555  0.15882481  0.69555937    -0.89800
H4830       H  0.92617629  0.09988633  0.69416445     0.17900
H4831       H  0.99080061  0.15788290  0.78495820     0.17900
N4832       N  0.96441569  0.10011957  0.78159545    -0.88800
H4833       H  0.95668483  0.14402725  0.67732462     0.35300
H4834       H  0.96939240  0.16282138  0.70671613     0.40400
H4835       H  0.94141581  0.09677335  0.77183584     0.40000
H4836       H  0.95734022  0.11432878  0.80069197     0.34900
C4837       C  0.02904843  0.24175432  0.64656099    -0.26800
C4838       C  0.92378497  0.26174357  0.66233449    -0.14900
C4839       C  0.94270613  0.28587921  0.64454959     0.35700
C4840       C  0.93978799  0.28861835  0.61337672    -0.26300
C4841       C  0.91890241  0.26783918  0.59932427    -0.15500
C4842       C  0.02726343  0.24453621  0.61515580     0.36800
N4843       N  0.00552214  0.22288475  0.60179089    -0.89800
H4844       H  0.01407356  0.22332483  0.65989100     0.17900
H4845       H  0.95372403  0.30751783  0.60002931     0.17900
N4846       N  0.96425892  0.30849679  0.65721383    -0.88800
H4847       H  0.98681219  0.23535691  0.59170479     0.35300
H4848       H  0.02167289  0.21065477  0.58463182     0.40400
H4849       H  0.95318262  0.33043498  0.65471440     0.40000
H4850       H  0.83998018  0.30620014  0.67916031     0.34900
C4851       C  0.90649367  0.25737272  0.86474500    -0.26800
C4852       C  0.92687355  0.23822682  0.84311884    -0.14900
C4853       C  0.94761968  0.21439109  0.85354107     0.35700
C4854       C  0.94760098  0.21035883  0.88508223    -0.26300
C4855       C  0.92723883  0.22929881  0.90679944    -0.15500
C4856       C  0.90655618  0.25327470  0.89653223     0.36800
N4857       N  0.01229104  0.27592569  0.91718476    -0.89800
H4858       H  0.01847615  0.27952011  0.85571627     0.17900
H4859       H  0.96371284  0.19203870  0.89275521     0.17900
N4860       N  0.96725400  0.19321370  0.83231859    -0.88800
H4861       H  0.00097609  0.29383200  0.90576755     0.35300
H4862       H  0.99119186  0.26337528  0.92973083     0.40400
H4863       H  0.98918593  0.20530960  0.82066599     0.40000
H4864       H  0.84715968  0.17281341  0.84186607     0.34900
C4865       C  0.87972740  0.99304082  0.64184579    -0.26800
C4866       C  0.98022480  0.02379889  0.65494432    -0.14900
C4867       C  0.96723214  0.04542022  0.63508840     0.35700
C4868       C  0.96629377  0.03771067  0.60448095    -0.26300
C4869       C  0.97906012  0.00914702  0.59272619    -0.15500
C4870       C  0.87375138  0.48940439  0.61021143     0.36800
N4871       N  0.89034661  0.46073732  0.59931057    -0.89800
H4872       H  0.88537629  0.48136610  0.65587261     0.17900
H4873       H  0.95600935  0.05448929  0.58958792     0.17900
N4874       N  0.95455522  0.07524637  0.64581629    -0.88800
H4875       H  0.91737892  0.46259267  0.60078682     0.35300
H4876       H  0.88844458  0.45689175  0.57627970     0.40400
H4877       H  0.92822410  0.07729078  0.64212081     0.40000
H4878       H  0.96963992  0.09238737  0.63256096     0.34900
C4879       C  0.87141231  0.50657499  0.88958225    -0.26800
C4880       C  0.97477373  0.49017889  0.91440927    -0.14900
C4881       C  0.95212798  0.46831758  0.90341361     0.35700
C4882       C  0.95288321  0.46520203  0.87169948    -0.26300
C4883       C  0.97606759  0.48306664  0.85034535    -0.15500
C4884       C  0.87061271  0.50471107  0.85774466     0.36800
N4885       N  0.89552165  0.52237453  0.83627531    -0.89800
H4886       H  0.89036605  0.52207345  0.89773904     0.17900
H4887       H  0.93573122  0.44799093  0.86355803     0.17900
N4888       N  0.92965798  0.44818554  0.92440637    -0.88800
H4889       H  0.91309295  0.53471525  0.84777441     0.35300
H4890       H  0.88116549  0.53908794  0.82603701     0.40400
H4891       H  0.94643216  0.43342456  0.93442163     0.40000
H4892       H  0.91403432  0.43391511  0.91271194     0.34900
C4893       C  0.99243280  0.35872573  0.54244669    -0.26800
C4894       C  0.89338086  0.34402399  0.52306024    -0.14900
C4895       C  0.90955694  0.35979140  0.49620305     0.35700
C4896       C  0.90026348  0.39089083  0.49121231    -0.26300
C4897       C  0.87476448  0.40623334  0.51216974    -0.15500
C4898       C  0.98223057  0.38956661  0.53795052     0.36800
N4899       N  0.95583816  0.40397436  0.56024886    -0.89800
H4900       H  0.97977961  0.34583612  0.56249177     0.17900
H4901       H  0.91297137  0.40323393  0.47092313     0.17900
N4902       N  0.93581294  0.34448924  0.47450945    -0.88800
H4903       H  0.94778765  0.38883844  0.57882073     0.35300
H4904       H  0.93335266  0.40761805  0.54988115     0.40400
H4905       H  0.95757392  0.33970348  0.48552968     0.40000
H4906       H  0.82321393  0.36233710  0.45631912     0.34900
C4907       C  0.93791607  0.09534574  0.97176087    -0.26800
C4908       C  0.95764297  0.08788975  0.99498365    -0.14900
C4909       C  0.84421807  0.11247765  0.01404307     0.35700
C4910       C  0.83546555  0.14359693  0.00794773    -0.26300
C4911       C  0.93919003  0.15029982  0.98475650    -0.15500
C4912       C  0.92869309  0.12617673  0.96625380     0.36800
N4913       N  0.90897757  0.13297304  0.94170353    -0.89800
H4914       H  0.93004281  0.07691351  0.95750898     0.17900
H4915       H  0.84457468  0.16223499  0.02125646     0.17900
N4916       N  0.85693133  0.10467175  0.54070777    -0.88800
H4917       H  0.90337661  0.11259513  0.93049135     0.35300
H4918       H  0.88455669  0.14218547  0.95141325     0.40400
H4919       H  0.88198144  0.09614200  0.53174412     0.40000
H4920       H  0.86128311  0.12492633  0.55262596     0.34900
O4921       O  0.96089132  0.94936294  0.01323530    -0.72300
O4922       O  0.94294445  0.53619682  0.50359349    -0.72500
O4923       O  0.94838996  0.98505211  0.46550849    -0.72400
O4924       O  0.94933408  0.49881047  0.05287066    -0.72400
O4925       O  0.88170405  0.50221028  0.03951514    -0.72300
O4926       O  0.87709688  0.00163698  0.45689909    -0.72400
O4927       O  0.87358933  0.54567725  0.49593403    -0.72300
O4928       O  0.89112633  0.95878530  0.99985337    -0.72500
V4929       V  0.95236520  0.99231026  0.00747993     1.35200
V4930       V  0.88212271  0.50189499  0.49657256     1.35200
C4931       C  0.86646853  0.93947854  0.00900769     0.76900
C4932       C  0.96774936  0.55605983  0.50024864     0.77000
C4933       C  0.97516816  0.99160573  0.44565969     0.76900
C4934       C  0.85348080  0.50191664  0.05874476     0.76800
C4935       C  0.93424966  0.68430498  0.47742652     0.79700
N4936       N  0.92926362  0.70641613  0.49953687    -0.78600
C4937       C  0.92298823  0.73651562  0.49189897     0.82200
N4938       N  0.92211003  0.74445068  0.46199264    -0.77500
C4939       C  0.92755203  0.72247176  0.43978646     0.82200
N4940       N  0.93363679  0.69269947  0.44785328    -0.80300
C4941       C  0.90622620  0.81246588  0.03005116     0.79700
N4942       N  0.91085098  0.79024029  0.00807271    -0.78600
C4943       C  0.91909793  0.76057530  0.01540216     0.82200
N4944       N  0.92281013  0.75325735  0.04485218    -0.78500
C4945       C  0.91846943  0.77549770  0.06681932     0.82200
N4946       N  0.91012700  0.80494212  0.05928241    -0.80300
O4947       O  0.02635445  0.75358002  0.30011612    -0.72300
O4948       O  0.02336508  0.75763606  0.21432899    -0.72500
O4949       O  0.01399802  0.71213831  0.25701291    -0.72400
O4950       O  0.03571048  0.79884163  0.25700484    -0.72400
O4951       O  0.96670919  0.78794892  0.25286815    -0.72300
O4952       O  0.94466541  0.70262375  0.24194214    -0.72400
O4953       O  0.95598899  0.75261336  0.20500231    -0.72300
O4954       O  0.95550178  0.73776327  0.29002593    -0.72500
V4955       V  0.02579844  0.75533263  0.25697144     1.35200
V4956       V  0.95478713  0.74545385  0.24769519     1.35200
C4957       C  0.92879364  0.74425618  0.30958916     0.76900
C4958       C  0.92722739  0.75695931  0.19493081     0.77000
C4959       C  0.91289350  0.69310127  0.24791875     0.76900
C4960       C  0.94263192  0.80825817  0.25534483     0.76800
C4961       C  0.00137100  0.56519963  0.22511612     0.79700
N4962       N  0.99673211  0.54287067  0.24746180    -0.78600
C4963       C  0.99043329  0.51279346  0.24034189     0.82200
N4964       N  0.98848397  0.50514260  0.21075110    -0.78500
C4965       C  0.99265885  0.52743720  0.18834159     0.82200
N4966       N  0.99936131  0.55731802  0.19566690    -0.80300
C4967       C  0.96899221  0.93797666  0.27776292     0.79700
N4968       N  0.97157529  0.96081551  0.25587898    -0.78600
C4969       C  0.97525537  0.99120187  0.26363121     0.82200
N4970       N  0.97613305  0.99868372  0.29350842    -0.78500
C4971       C  0.97301482  0.97595235  0.31551848     0.82200
N4972       N  0.96928008  0.94590023  0.30738903    -0.80300
C4973       C  0.97127671  0.84947731  0.28151770    -0.26800
C4974       C  0.95114131  0.84144612  0.25878787    -0.14900
C4975       C  0.93897458  0.86504780  0.24054816     0.35700
C4976       C  0.94648770  0.89647996  0.24614399    -0.26300
C4977       C  0.96524953  0.90465757  0.26996992    -0.15500
C4978       C  0.97839869  0.88074150  0.28744154     0.36800
N4979       N  0.87364644  0.88629985  0.31436032    -0.89800
H4980       H  0.85456161  0.82978618  0.29773538     0.17900
H4981       H  0.93650010  0.91467619  0.23262952     0.17900
N4982       N  0.04773336  0.85734794  0.21608346    -0.88800
H4983       H  0.88057160  0.86579858  0.32493925     0.35300
H4984       H  0.89740365  0.89703219  0.30446014     0.40400
H4985       H  0.02277298  0.84836878  0.22528106     0.40000
H4986       H  0.04316467  0.87761324  0.20395603     0.34900
C4987       C  0.90173838  0.61694639  0.20803090    -0.26800
C4988       C  0.01018176  0.59765217  0.23215593    -0.14900
C4989       C  0.99204509  0.61369687  0.25763342     0.35700
C4990       C  0.00172109  0.64476858  0.26262034    -0.26300
C4991       C  0.90322352  0.66047000  0.24255574    -0.15500
C4992       C  0.91518607  0.64634634  0.21412310     0.36800
N4993       N  0.93947380  0.66257450  0.19089813    -0.89800
H4994       H  0.90989762  0.60696352  0.18572357     0.17900
H4995       H  0.98764673  0.65730410  0.28192686     0.17900
N4996       N  0.96352705  0.59869987  0.27785858    -0.88800
H4997       H  0.94380497  0.64977386  0.17059975     0.35300
H4998       H  0.96399072  0.66386291  0.19864196     0.40400
H4999       H  0.94326001  0.59396106  0.26506732     0.40000
H5000       H  0.95285211  0.61381569  0.29532741     0.34900
C5001       C  0.03033900  0.73927795  0.14799526    -0.26800
C5002       C  0.92680348  0.76117687  0.16185733    -0.14900
C5003       C  0.94678068  0.78499930  0.14438363     0.35700
C5004       C  0.94435014  0.78823019  0.11315729    -0.26300
C5005       C  0.92277007  0.76840023  0.09882692    -0.15500
C5006       C  0.02749163  0.74223605  0.11680421     0.36800
N5007       N  0.00651001  0.71979060  0.10363287    -0.89800
H5008       H  0.01665167  0.72019451  0.16131561     0.17900
H5009       H  0.95917800  0.80677858  0.10001895     0.17900
N5010       N  0.96888882  0.80688866  0.15740731    -0.88800
H5011       H  0.98677364  0.73150099  0.09416279     0.35300
H5012       H  0.02289067  0.70832157  0.08605303     0.40400
H5013       H  0.95880885  0.82917928  0.15465859     0.40000
H5014       H  0.84034762  0.80516716  0.18055420     0.34900
C5015       C  0.90977228  0.75931677  0.36430076    -0.26800
C5016       C  0.92946860  0.73954263  0.34285342    -0.14900
C5017       C  0.94878084  0.71482920  0.35351149     0.35700
C5018       C  0.94806110  0.71056166  0.38512130    -0.26300
C5019       C  0.92831701  0.73008775  0.40671965    -0.15500
C5020       C  0.90901606  0.75492014  0.39617690     0.36800
N5021       N  0.01369208  0.77523770  0.41759741    -0.89800
H5022       H  0.01979027  0.77779830  0.35609249     0.17900
H5023       H  0.96315240  0.69157206  0.39290827     0.17900
N5024       N  0.96756593  0.69302123  0.33242624    -0.88800
H5025       H  0.00101643  0.79210648  0.40598014     0.35300
H5026       H  0.99359589  0.76164632  0.43025589     0.40400
H5027       H  0.99028605  0.70427025  0.32107869     0.40000
H5028       H  0.85527355  0.67567619  0.34482918     0.34900
C5029       C  0.86811083  0.49406807  0.14200787    -0.26800
C5030       C  0.98793251  0.51976250  0.15652041    -0.14900
C5031       C  0.96765411  0.53920017  0.14003953     0.35700
C5032       C  0.96372419  0.53176270  0.10985242    -0.26300
C5033       C  0.98010649  0.50555402  0.09551637    -0.15500
C5034       C  0.87681635  0.98648693  0.11169014     0.36800
N5035       N  0.89400064  0.95872595  0.09897505    -0.89800
H5036       H  0.89477454  0.97891512  0.15512865     0.17900
H5037       H  0.94861106  0.54702622  0.09707662     0.17900
N5038       N  0.95067154  0.56625128  0.15424527    -0.88800
H5039       H  0.92136121  0.96171948  0.09809298     0.35300
H5040       H  0.88942709  0.95481409  0.07658802     0.40400
H5041       H  0.93245538  0.55825759  0.17292060     0.40000
H5042       H  0.93607910  0.57768630  0.13932266     0.34900
C5043       C  0.86980215  0.00841532  0.39304894    -0.26800
C5044       C  0.97386902  0.98845075  0.41227618    -0.14900
C5045       C  0.94944207  0.96797351  0.40161787     0.35700
C5046       C  0.94888970  0.96565384  0.36999916    -0.26300
C5047       C  0.97242195  0.98294365  0.34845511    -0.15500
C5048       C  0.87025427  0.00547037  0.36115066     0.36800
N5049       N  0.89390426  0.02449151  0.33990106    -0.89800
H5050       H  0.88685543  0.02559058  0.40136151     0.17900
H5051       H  0.93032177  0.94961320  0.36202018     0.17900
N5052       N  0.92625068  0.94855371  0.42279454    -0.88800
H5053       H  0.90998683  0.03828611  0.35160948     0.35300
H5054       H  0.87833338  0.03992994  0.32933985     0.40400
H5055       H  0.94237360  0.93265924  0.43215879     0.40000
H5056       H  0.90929887  0.93542555  0.41133658     0.34900
C5057       C  0.99184597  0.85863060  0.04368915    -0.26800
C5058       C  0.89521181  0.84430288  0.02302285    -0.14900
C5059       C  0.91183847  0.86123384  0.99708476     0.35700
C5060       C  0.90149537  0.89215441  0.99268159    -0.26300
C5061       C  0.87436211  0.90614949  0.01318756    -0.15500
C5062       C  0.98208477  0.88946998  0.03854006     0.36800
N5063       N  0.95543422  0.90433685  0.06025597    -0.89800
H5064       H  0.97843075  0.84602614  0.06359706     0.17900
H5065       H  0.91483542  0.90550284  0.97329698     0.17900
N5066       N  0.93958541  0.84729493  0.97575029    -0.88800
H5067       H  0.94707590  0.88960602  0.07908825     0.35300
H5068       H  0.93315853  0.90773556  0.04955860     0.40400
H5069       H  0.96074442  0.84253031  0.98749274     0.40000
H5070       H  0.82260924  0.86051799  0.95849994     0.34900
C5071       C  0.93901404  0.59617656  0.47281975    -0.26800
C5072       C  0.95969600  0.58907529  0.49549851    -0.14900
C5073       C  0.84257200  0.61124769  0.51264958     0.35700
C5074       C  0.83218816  0.64223907  0.50821363    -0.26300
C5075       C  0.94105669  0.65131796  0.48475198    -0.15500
C5076       C  0.92958532  0.62692542  0.46714907     0.36800
N5077       N  0.90848037  0.63337468  0.44348155    -0.89800
H5078       H  0.93038843  0.57752157  0.45922676     0.17900
H5079       H  0.83975823  0.66041174  0.52286538     0.17900
N5080       N  0.85679101  0.60232571  0.03908928    -0.88800
H5081       H  0.90206827  0.61280886  0.43297928     0.35300
H5082       H  0.88450860  0.64287087  0.45393462     0.40400
H5083       H  0.88209027  0.59444242  0.03000076     0.40000
H5084       H  0.86053661  0.62209424  0.05192698     0.34900
O5085       O  0.95872992  0.94958031  0.51416369    -0.72300
O5086       O  0.93927209  0.53545771  0.00505772    -0.72500
O5087       O  0.95106073  0.98577339  0.96512551    -0.72400
O5088       O  0.95311052  0.50011539  0.55171167    -0.72400
O5089       O  0.88505776  0.50386233  0.53920252    -0.72300
O5090       O  0.88024401  0.00150232  0.95694391    -0.72400
O5091       O  0.86987712  0.54480261  0.99701990    -0.72300
O5092       O  0.88907258  0.95877824  0.49938232    -0.72500
V5093       V  0.94968281  0.99232491  0.50780034     1.35200
V5094       V  0.87865630  0.50102905  0.99688263     1.35200
C5095       C  0.86461152  0.93939191  0.50892248     0.76900
C5096       C  0.96398783  0.55541550  0.00199388     0.77000
C5097       C  0.97804419  0.99199921  0.94539508     0.76900
C5098       C  0.85678328  0.50385171  0.55838196     0.76800
C5099       C  0.93272359  0.68386038  0.97767529     0.79700
N5100       N  0.92924061  0.70629375  0.99947270    -0.78600
C5101       C  0.92329493  0.73640911  0.99171704     0.82200
N5102       N  0.92111320  0.74404982  0.96197649    -0.77500
C5103       C  0.92504784  0.72175029  0.94003662     0.82200
N5104       N  0.93095120  0.69196488  0.94820892    -0.80300
C5105       C  0.90321968  0.81215422  0.53042260     0.79700
N5106       N  0.90861895  0.78998381  0.50841931    -0.78600
C5107       C  0.91731413  0.76044752  0.51580125     0.82200
N5108       N  0.92071818  0.75320616  0.54534742    -0.78500
C5109       C  0.91559053  0.77541485  0.56733702     0.82200
N5110       N  0.90684323  0.80470868  0.55971965    -0.80300
O5111       O  0.02317170  0.75352101  0.80031281    -0.72300
O5112       O  0.02169456  0.75832834  0.71432602    -0.72500
O5113       O  0.01211401  0.71238388  0.75663255    -0.72400
O5114       O  0.03281947  0.79921165  0.75768601    -0.72400
O5115       O  0.96371131  0.78937669  0.75379211    -0.72300
O5116       O  0.94282664  0.70408872  0.74250929    -0.72400
O5117       O  0.95383524  0.75417175  0.70567107    -0.72300
O5118       O  0.95260653  0.73903942  0.79076102    -0.72500
V5119       V  0.02338452  0.75565552  0.75709219     1.35200
V5120       V  0.95229440  0.74690290  0.74840915     1.35200
C5121       C  0.92546519  0.74481741  0.81015329     0.76900
C5122       C  0.92514009  0.75831551  0.69541630     0.77000
C5123       C  0.91120547  0.69422595  0.74820507     0.76900
C5124       C  0.93945524  0.80949645  0.75633086     0.76800
C5125       C  0.00096420  0.56540047  0.72506901     0.79700
N5126       N  0.99642439  0.54305180  0.74740985    -0.78600
C5127       C  0.99033173  0.51292398  0.74030524     0.82200
N5128       N  0.98857988  0.50524553  0.71064113    -0.78500
C5129       C  0.99265301  0.52760527  0.68823371     0.82200
N5130       N  0.99906126  0.55751514  0.69561445    -0.80300
C5131       C  0.96872928  0.93883907  0.77795976     0.79700
N5132       N  0.97205578  0.96149528  0.75586314    -0.78600
C5133       C  0.97710470  0.99177673  0.76332466     0.82200
N5134       N  0.97862081  0.99932321  0.79310947    -0.78500
C5135       C  0.97477021  0.97676383  0.81531454     0.82200
N5136       N  0.96966404  0.94686397  0.80743533    -0.80300
C5137       C  0.96795828  0.85038453  0.78282370    -0.26800
C5138       C  0.94786659  0.84263240  0.76000268    -0.14900
C5139       C  0.93637603  0.86635072  0.74151444     0.35700
C5140       C  0.94467955  0.89767422  0.74687160    -0.26300
C5141       C  0.96367343  0.90558671  0.77063081    -0.15500
C5142       C  0.97592134  0.88149835  0.78848543     0.36800
N5143       N  0.87238168  0.88409466  0.81536766    -0.89800
H5144       H  0.85114801  0.82827259  0.79892647     0.17900
H5145       H  0.93530901  0.91599803  0.73312210     0.17900
N5146       N  0.04437216  0.85792758  0.71767723    -0.88800
H5147       H  0.87793014  0.86340311  0.82637571     0.35300
H5148       H  0.89683393  0.89378922  0.80576042     0.40400
H5149       H  0.01937989  0.84901618  0.72686570     0.40000
H5150       H  0.03986844  0.87819784  0.70553021     0.34900
C5151       C  0.90361645  0.61692134  0.70952137    -0.26800
C5152       C  0.00968667  0.59787277  0.73209765    -0.14900
C5153       C  0.99142008  0.61386704  0.75753738     0.35700
C5154       C  0.00075803  0.64503219  0.76241551    -0.26300
C5155       C  0.90232688  0.66139313  0.74315964    -0.15500
C5156       C  0.91647214  0.64649535  0.71563738     0.36800
N5157       N  0.94247595  0.66203562  0.69328157    -0.89800
H5158       H  0.91356551  0.60620446  0.68790097     0.17900
H5159       H  0.98645894  0.65756579  0.78161905     0.17900
N5160       N  0.96315207  0.59869208  0.77788837    -0.88800
H5161       H  0.94835040  0.64864167  0.67345966     0.35300
H5162       H  0.96602429  0.66349688  0.70257170     0.40400
H5163       H  0.94283481  0.59374941  0.76521504     0.40000
H5164       H  0.95242996  0.61375376  0.79538862     0.34900
C5165       C  0.02893288  0.74114650  0.64812433    -0.26800
C5166       C  0.92479711  0.76211175  0.66229787    -0.14900
C5167       C  0.94421381  0.78609520  0.64462650     0.35700
C5168       C  0.94144910  0.78904216  0.61344151    -0.26300
C5169       C  0.92021202  0.76867165  0.59932625    -0.15500
C5170       C  0.02675197  0.74407388  0.61681439     0.36800
N5171       N  0.00501289  0.72235848  0.60352347    -0.89800
H5172       H  0.01420987  0.72258436  0.66145818     0.17900
H5173       H  0.95578384  0.80774927  0.60014981     0.17900
N5174       N  0.96607686  0.80838329  0.65739954    -0.88800
H5175       H  0.98604847  0.73475718  0.59369731     0.35300
H5176       H  0.02109315  0.71034877  0.58614980     0.40400
H5177       H  0.95546784  0.83049200  0.65478335     0.40000
H5178       H  0.83793973  0.80384642  0.68084611     0.34900
C5179       C  0.90595713  0.75887331  0.86508645    -0.26800
C5180       C  0.92563778  0.73936823  0.84336968    -0.14900
C5181       C  0.94460665  0.71424204  0.85367099     0.35700
C5182       C  0.94401936  0.70956115  0.88521379    -0.26300
C5183       C  0.92480967  0.72914978  0.90706723    -0.15500
C5184       C  0.90538500  0.75409826  0.89689388     0.36800
N5185       N  0.00915065  0.77447830  0.91813833    -0.89800
H5186       H  0.01578837  0.77742303  0.85658749     0.17900
H5187       H  0.95901565  0.69036481  0.89273041     0.17900
N5188       N  0.96306773  0.69256356  0.83225061    -0.88800
H5189       H  0.99664441  0.79147194  0.90653002     0.35300
H5190       H  0.98894833  0.76099865  0.93076451     0.40400
H5191       H  0.98599914  0.70369300  0.82112609     0.40000
H5192       H  0.84916773  0.67384940  0.84492809     0.34900
C5193       C  0.87290177  0.49693356  0.64130861    -0.26800
C5194       C  0.98882599  0.51999329  0.65617214    -0.14900
C5195       C  0.96800838  0.53883437  0.63962763     0.35700
C5196       C  0.96548655  0.53184818  0.60903985    -0.26300
C5197       C  0.98386475  0.50672930  0.59431820    -0.15500
C5198       C  0.87679302  0.98601558  0.61122095     0.36800
N5199       N  0.89338707  0.95809950  0.59827662    -0.89800
H5200       H  0.89522420  0.97795328  0.65442177     0.17900
H5201       H  0.94975760  0.54658929  0.59631824     0.17900
N5202       N  0.94910353  0.56483891  0.65415906    -0.88800
H5203       H  0.92081455  0.96067629  0.59726274     0.35300
H5204       H  0.88861740  0.95449302  0.57589434     0.40400
H5205       H  0.93107318  0.55577433  0.67242220     0.40000
H5206       H  0.93416610  0.57581130  0.63921350     0.34900
C5207       C  0.87351696  0.00764591  0.89254674    -0.26800
C5208       C  0.97671219  0.98897690  0.91202045    -0.14900
C5209       C  0.95260402  0.96814503  0.90145983     0.35700
C5210       C  0.95170304  0.96597044  0.86990742    -0.26300
C5211       C  0.97464258  0.98369440  0.84825261    -0.15500
C5212       C  0.87392557  0.00437861  0.86065985     0.36800
N5213       N  0.89734801  0.02339624  0.83923074    -0.89800
H5214       H  0.89050708  0.02497294  0.90070726     0.17900
H5215       H  0.93325813  0.94971088  0.86207763     0.17900
N5216       N  0.93003369  0.94827180  0.92268489    -0.88800
H5217       H  0.91336961  0.03740115  0.85079902     0.35300
H5218       H  0.88160222  0.03864283  0.82863416     0.40400
H5219       H  0.94659465  0.93265177  0.93189695     0.40000
H5220       H  0.91325473  0.93486345  0.91130676     0.34900
C5221       C  0.99075418  0.85870974  0.54355760    -0.26800
C5222       C  0.89246606  0.84404742  0.52325716    -0.14900
C5223       C  0.90871377  0.86057199  0.49689258     0.35700
C5224       C  0.89870570  0.89157332  0.49236111    -0.26300
C5225       C  0.87250502  0.90612264  0.51332365    -0.15500
C5226       C  0.98039230  0.88943299  0.53859805     0.36800
N5227       N  0.95311238  0.90367742  0.56019172    -0.89800
H5228       H  0.97747991  0.84578745  0.56331012     0.17900
H5229       H  0.91159588  0.90454357  0.47255158     0.17900
N5230       N  0.93588712  0.84619276  0.47532796    -0.88800
H5231       H  0.94471253  0.88861987  0.57875541     0.35300
H5232       H  0.93103947  0.90689058  0.54919320     0.40400
H5233       H  0.95742172  0.84163564  0.48670200     0.40000
H5234       H  0.82076873  0.86059041  0.45938653     0.34900
C5235       C  0.93580798  0.59555210  0.97424589    -0.26800
C5236       C  0.95602007  0.58842953  0.99723572    -0.14900
C5237       C  0.83874950  0.61037559  0.01383015     0.35700
C5238       C  0.82880019  0.64146313  0.00913037    -0.26300
C5239       C  0.93898862  0.65082786  0.98533061    -0.15500
C5240       C  0.92716100  0.62636248  0.96799966     0.36800
N5241       N  0.90647702  0.63276802  0.94402806    -0.89800
H5242       H  0.92703024  0.57685973  0.96078190     0.17900
H5243       H  0.83632899  0.65959003  0.02384810     0.17900
N5244       N  0.86110570  0.60327656  0.53762673    -0.88800
H5245       H  0.90003999  0.61217182  0.93359037     0.35300
H5246       H  0.88248270  0.64245167  0.95421727     0.40400
H5247       H  0.88637146  0.59554810  0.52825382     0.40000
H5248       H  0.86492253  0.62305829  0.55042366     0.34900
loop_ 
_geom_bond_atom_site_label_1 
_geom_bond_atom_site_label_2 
_geom_bond_distance 
_geom_bond_site_symmetry_2 
_ccdc_geom_bond_type 
O1            V9   1.895       .  S
O1          C667   1.261       .  A
O2          V501   1.891   1_545  S
O2           C12   1.259       .  A
O3          V173   1.899       .  S
O3           C13   1.264       .  A
O4          V337   1.901       .  S
O4          C670   1.262   1_565  A
O5          V174   1.900   1_554  S
O5           C14   1.261   1_455  A
O6          V338   1.902       .  S
O6         C4605   1.262   1_455  A
O7           V10   1.910   1_655  S
O7         C4604   1.263       .  A
O8          V502   1.905       .  S
O8           C11   1.264   1_455  A
V9          O494   1.890       .  S
V9          O167   1.900   1_554  S
V9          O332   1.900       .  S
V9         V1158   2.076   1_554  T
V10         O169   1.899       .  S
V10         O334   1.906       .  S
V10         O500   1.907   1_545  S
V10        V5093   2.077   1_445  T
C11        O4593   1.262       .  A
C11         C141   1.479       .  S
C12         O663   1.262       .  A
C12         C152   1.470       .  S
C13         O662   1.264       .  A
C13         C124   1.484       .  S
C14        O4596   1.260   1_545  A
C14        C4705   1.467       .  S
C15         C155   1.482       .  S
C15          N16   1.359       .  A
C15          N20   1.353       .  A
N16          C17   1.362       .  A
C17         C187   1.470       .  S
C17          N18   1.362       .  A
N18          C19   1.359       .  A
C19          C99   1.485       .  S
C19          N20   1.353       .  A
C21         C138   1.476       .  S
C21          N22   1.359       .  A
C21          N26   1.354       .  A
N22          C23   1.362       .  A
C23         C181   1.472   1_554  S
C23          N24   1.362       .  A
N24          C25   1.359       .  A
C25          C85   1.476       .  S
C25          N26   1.354       .  A
O27          V35   1.905       .  S
O27         C693   1.264       .  A
O28          V35   1.897       .  S
O28         C694   1.261       .  A
O29          V35   1.906       .  S
O29         C695   1.263       .  A
O30          V35   1.904       .  S
O30         C696   1.261       .  A
O31          V36   1.898       .  S
O31          C40   1.262       .  A
O32          V36   1.899       .  S
O32          C39   1.262       .  A
O33          V36   1.898       .  S
O33          C38   1.260       .  A
O34          V36   1.894       .  S
O34          C37   1.261       .  A
V35         V692   2.078       .  T
V36        V4627   2.077       .  T
C37        O4619   1.264       .  A
C37          C96   1.479       .  S
C38        O4620   1.261       .  A
C38          C82   1.470       .  S
C39        O4621   1.261       .  A
C39          C71   1.475       .  S
C40        O4622   1.260       .  A
C40          C54   1.471       .  S
C41          C68   1.477       .  S
C41          N42   1.359       .  A
C41          N46   1.355       .  A
N42          C43   1.362       .  A
C43         C377   1.472   1_545  S
C43          N44   1.362       .  A
N44          C45   1.359       .  A
C45         C110   1.481       .  S
C45          N46   1.356       .  A
C47          C57   1.483       .  S
C47          N48   1.359       .  A
C47          N52   1.353       .  A
N48          C49   1.362       .  A
C49         C371   1.475       .  S
C49          N50   1.365       .  A
N50          C51   1.361       .  A
C51         C127   1.486       .  S
C51          N52   1.354       .  A
C53          C54   1.398       .  A
C53          C58   1.402       .  A
C53         H716   1.084       .  S
C54          C55   1.410       .  A
C55          C56   1.408       .  A
C55        N4654   1.438       .  S
C56          C57   1.405       .  A
C56          H61   1.083       .  S
C57          C58   1.417       .  A
C58         N715   1.439       .  S
N59        C4650   1.439       .  S
N59          H63   1.046       .  S
N59          H64   1.044   1_655  S
H60        C4645   1.084       .  S
N62         C711   1.438       .  S
N62          H65   1.044       .  S
N62          H66   1.046       .  S
C67          C72   1.401       .  A
C67        C4660   1.403       .  A
C67          H74   1.077       .  S
C68          C69   1.409       .  A
C68         C723   1.399       .  A
C69          C70   1.409       .  A
C69          N76   1.437       .  S
C70         C727   1.406       .  A
C70          H75   1.082       .  S
C71          C72   1.409       .  A
C71        C4662   1.405   1_455  A
C72          N73   1.439       .  S
N73          H77   1.046       .  S
N73          H78   1.045       .  S
N76          H79   1.045       .  S
N76          H80   1.046       .  S
C81          C86   1.398       .  A
C81         C738   1.404       .  A
C81          H88   1.084       .  S
C82          C83   1.416       .  A
C82        C4673   1.405       .  A
C83          C84   1.399       .  A
C83          N90   1.440       .  S
C84          C85   1.403       .  A
C84          H89   1.082       .  S
C85        C4678   1.412       .  A
C86         C741   1.411       .  A
C86          N87   1.432       .  S
N87          H91   1.045       .  S
N87          H92   1.045       .  S
N90          H93   1.046       .  S
N90         H750   1.042       .  S
H94        N4682   1.042       .  S
C95          C96   1.405       .  A
C95         C100   1.410       .  A
C95        H4694   1.084       .  S
C96          C97   1.412       .  A
C97          C98   1.399       .  A
C97         N104   1.438       .  S
C98          C99   1.405       .  A
C98         H103   1.084       .  S
C99         C100   1.414       .  A
C100       N4693   1.437       .  S
N101        C756   1.437       .  S
N101        H105   1.046       .  S
N101        H106   1.044       .  S
H102        C751   1.084       .  S
N104        H107   1.044       .  S
N104        H764   1.046       .  S
H108       N4696   1.046       .  S
C109       C4702   1.406   1_565  A
C109        C442   1.406       .  A
C109        H444   1.084   1_655  S
C110        C111   1.412       .  A
C110        C765   1.403   1_545  A
C111        C112   1.400       .  A
C111        N118   1.434       .  S
C112        C113   1.397       .  A
C112        H117   1.085       .  S
C113        C670   1.469       .  S
C113       C1098   1.418   1_545  A
C114        C437   1.405   1_655  A
C114       C5033   1.418       .  A
C114        N115   1.438   1_655  S
N115        H119   1.045       .  S
N115        H120   1.043       .  S
H116        C437   1.084       .  S
N118        H121   1.044       .  S
N118        H122   1.046       .  S
C123        C128   1.410       .  A
C123       C4716   1.406       .  A
C123        H130   1.084   1_655  S
C124        C125   1.410       .  A
C124        C779   1.407       .  A
C125        C126   1.400       .  A
C125        N132   1.437       .  S
C126        C127   1.405       .  A
C126        H131   1.084       .  S
C127        C784   1.414       .  A
C128       C4719   1.414       .  A
C128        N129   1.437   1_655  S
N129        H133   1.046       .  S
N129        H134   1.045       .  S
N132        H135   1.046       .  S
N132        H136   1.046       .  S
C137        C142   1.403       .  A
C137        C794   1.403       .  A
C137        H144   1.082       .  S
C138        C139   1.409   1_554  A
C138       C4729   1.402   1_455  A
C139        C140   1.407       .  A
C139        N146   1.438       .  S
C140        C141   1.405   1_456  A
C140        H145   1.080       .  S
C141       C4734   1.413       .  A
C142        C797   1.412       .  A
C142        N143   1.438       .  S
N143        H147   1.046       .  S
N143        H148   1.044       .  S
N146        H149   1.044       .  S
N146        H806   1.046       .  S
H150       N4738   1.046       .  S
C151        C152   1.398       .  A
C151        C156   1.399       .  A
C151        H158   1.084       .  S
C152        C809   1.410       .  A
C153        C154   1.410       .  A
C153       C4744   1.409       .  A
C153        N324   1.437       .  S
C154       C4747   1.407       .  A
C154        H159   1.083       .  S
C155        C156   1.417       .  A
C155        C810   1.407       .  A
C156        N157   1.439       .  S
N157        H161   1.046       .  S
N157        H162   1.044       .  S
N160        C317   1.437       .  S
N160        H163   1.044   1_655  S
N160        H164   1.046       .  S
O165        V173   1.894       .  S
O165        C831   1.261       .  A
O166        V337   1.890   1_545  S
O166        C176   1.260   1_554  A
O167        C177   1.264       .  A
O168        V501   1.906       .  S
O168        C834   1.263   1_565  A
O169        C178   1.260   1_455  A
O170        V502   1.904   1_556  S
O170       C4769   1.263   1_455  A
O171        V174   1.908   1_655  S
O171       C4768   1.262       .  A
O172        V338   1.906       .  S
O172        C175   1.264   1_455  A
V173        O330   1.889       .  S
V173        O496   1.899       .  S
V173        V994   2.077       .  T
V174        O498   1.907       .  S
V174        O336   1.906   1_545  S
V174       V4929   2.079   1_446  T
C175       O4757   1.261       .  A
C175        C305   1.477       .  S
C176        O827   1.263       .  A
C176        C316   1.471       .  S
C177        O826   1.264       .  A
C177        C288   1.485       .  S
C178       O4760   1.260   1_545  A
C178       C4869   1.467       .  S
C179        C319   1.483       .  S
C179        N180   1.359       .  A
C179        N184   1.353       .  A
N180        C181   1.363       .  A
C181        N182   1.363       .  A
N182        C183   1.360       .  A
C183        C263   1.489       .  S
C183        N184   1.354       .  A
C185        C302   1.475       .  S
C185        N186   1.358       .  A
C185        N190   1.355       .  A
N186        C187   1.361       .  A
C187        N188   1.361       .  A
N188        C189   1.358       .  A
C189        C249   1.474       .  S
C189        N190   1.354       .  A
O191        V199   1.906       .  S
O191        C857   1.264       .  A
O192        V199   1.899       .  S
O192        C858   1.261       .  A
O193        V199   1.905       .  S
O193        C859   1.263       .  A
O194        V199   1.905       .  S
O194        C860   1.262       .  A
O195        V200   1.896       .  S
O195        C204   1.261       .  A
O196        V200   1.897       .  S
O196        C203   1.262       .  A
O197        V200   1.898       .  S
O197        C202   1.260       .  A
O198        V200   1.895       .  S
O198        C201   1.262       .  A
V199        V856   2.078       .  T
V200       V4791   2.077       .  T
C201       O4783   1.264       .  A
C201        C260   1.481       .  S
C202       O4784   1.262       .  A
C202        C246   1.470       .  S
C203       O4785   1.262       .  A
C203        C235   1.473       .  S
C204       O4786   1.260       .  A
C204        C218   1.468       .  S
C205        C232   1.477       .  S
C205        N206   1.357       .  A
C205        N210   1.357       .  A
N206        C207   1.360       .  A
C207        C541   1.471   1_545  S
C207        N208   1.363       .  A
N208        C209   1.360       .  A
C209        C274   1.484       .  S
C209        N210   1.357       .  A
C211        C221   1.480       .  S
C211        N212   1.359       .  A
C211        N216   1.353       .  A
N212        C213   1.362       .  A
C213        C535   1.472       .  S
C213        N214   1.364       .  A
N214        C215   1.359       .  A
C215        C291   1.482       .  S
C215        N216   1.353       .  A
C217        C218   1.398       .  A
C217        C222   1.400       .  A
C217        H880   1.084       .  S
C218        C219   1.410       .  A
C219        C220   1.408       .  A
C219       N4818   1.438       .  S
C220        C221   1.405       .  A
C220        H225   1.084       .  S
C221        C222   1.416       .  A
C222        N879   1.439       .  S
N223       C4814   1.439       .  S
N223        H227   1.046   1_655  S
N223        H228   1.044   1_655  S
H224       C4809   1.084       .  S
N226        C875   1.438       .  S
N226        H229   1.044       .  S
N226        H230   1.046       .  S
C231       C4824   1.404       .  A
C231        C236   1.400       .  A
C231        H238   1.075       .  S
C232        C887   1.399       .  A
C232        C233   1.410       .  A
C233        C234   1.409       .  A
C233        N240   1.438       .  S
C234        C891   1.406       .  A
C234        H239   1.081       .  S
C235       C4826   1.404       .  A
C235        C236   1.408       .  A
C236        N237   1.439       .  S
N237        H241   1.046       .  S
N237        H242   1.045       .  S
N240        H243   1.045       .  S
N240        H244   1.046       .  S
C245        C902   1.405       .  A
C245        C250   1.401       .  A
C245        H252   1.084       .  S
C246       C4837   1.404       .  A
C246        C247   1.417       .  A
C247        C248   1.399       .  A
C247        N254   1.440       .  S
C248        C249   1.402       .  A
C248        H253   1.081       .  S
C249       C4842   1.412       .  A
C250        C905   1.412       .  A
C250        N251   1.432       .  S
N251        H255   1.044       .  S
N251        H256   1.045       .  S
N254        H257   1.046       .  S
N254        H914   1.042       .  S
H258       N4846   1.042       .  S
C259        C260   1.405       .  A
C259        C264   1.411       .  A
C259       H4858   1.084       .  S
C260        C261   1.411       .  A
C261        C262   1.399       .  A
C261        N268   1.438       .  S
C262        C263   1.406       .  A
C262        H267   1.083       .  S
C263        C264   1.415       .  A
C264       N4857   1.437       .  S
N265        C920   1.437       .  S
N265        H269   1.046       .  S
N265        H270   1.045       .  S
H266        C915   1.084       .  S
N268        H271   1.044       .  S
N268        H928   1.046       .  S
H272       N4860   1.046       .  S
C273       C4866   1.407   1_565  A
C273        C606   1.406       .  A
C273        H608   1.084   1_655  S
C274        C929   1.403   1_545  A
C274        C275   1.412       .  A
C275        C276   1.401       .  A
C275        N282   1.432       .  S
C276        C277   1.396       .  A
C276        H281   1.085       .  S
C277        C834   1.471       .  S
C277       C1262   1.419   1_545  A
C278        C601   1.406       .  A
C278       C5197   1.419   1_455  A
C278        N279   1.438       .  S
N279        H283   1.045       .  S
N279        H284   1.043       .  S
H280        C601   1.084       .  S
N282        H285   1.043       .  S
N282        H286   1.046       .  S
C287       C4880   1.407       .  A
C287        C292   1.412       .  A
C287        H294   1.084   1_655  S
C288        C943   1.407       .  A
C288        C289   1.412       .  A
C289        C290   1.401       .  A
C289        N296   1.437       .  S
C290        C291   1.404       .  A
C290        H295   1.084       .  S
C291        C948   1.412       .  A
C292       C4883   1.414       .  A
C292        N293   1.437   1_655  S
N293        H297   1.046       .  S
N293        H298   1.045       .  S
N296        H299   1.045       .  S
N296        H300   1.046       .  S
C301        C958   1.401       .  A
C301        C306   1.402       .  A
C301        H308   1.081       .  S
C302       C4893   1.402   1_455  A
C302        C303   1.410       .  A
C303        C304   1.407       .  A
C303        N310   1.438       .  S
C304        C305   1.404   1_455  A
C304        H309   1.079       .  S
C305       C4898   1.412       .  A
C306        C961   1.413       .  A
C306        N307   1.438       .  S
N307        H311   1.046       .  S
N307        H312   1.044       .  S
N310        H313   1.045       .  S
N310        H970   1.046       .  S
H314       N4902   1.046       .  S
C315        C316   1.398       .  A
C315        C320   1.399       .  A
C315        H322   1.084       .  S
C316        C973   1.410   1_556  A
C317       C4908   1.410   1_554  A
C317        C318   1.410       .  A
C318       C4911   1.407   1_554  A
C318        H323   1.083       .  S
C319        C974   1.407   1_556  A
C319        C320   1.416       .  A
C320        N321   1.439       .  S
N321        H325   1.046       .  S
N321        H326   1.044       .  S
N324        H327   1.044   1_655  S
N324        H328   1.046       .  S
O329        V337   1.895       .  S
O329        C995   1.261       .  A
O330        C340   1.259       .  A
O331        V501   1.904       .  S
O331        C341   1.264       .  A
O332        C998   1.261       .  A
O333        V502   1.895       .  S
O333        C342   1.260   1_455  A
O334       C4933   1.264   1_445  A
O335        V338   1.909   1_655  S
O335       C4932   1.263       .  A
O336        C339   1.264   1_456  A
V337        O495   1.900   1_554  S
V337        V830   2.077   1_564  T
V338        O497   1.897       .  S
V338       V4765   2.078   1_455  T
C339       O4921   1.261       .  A
C339        C469   1.478       .  S
C340        O991   1.262       .  A
C340        C480   1.470       .  S
C341        O990   1.263   1_565  A
C341        C452   1.484       .  S
C342       O4924   1.263       .  A
C342       C5033   1.470       .  S
C343        C483   1.485       .  S
C343        N344   1.360       .  A
C343        N348   1.351       .  A
N344        C345   1.365       .  A
C345        C515   1.471       .  S
C345        N346   1.363       .  A
N346        C347   1.358       .  A
C347        C427   1.484       .  S
C347        N348   1.352       .  A
C349        C466   1.476       .  S
C349        N350   1.358       .  A
C349        N354   1.354       .  A
N350        C351   1.361       .  A
C351        C509   1.471   1_554  S
C351        N352   1.361       .  A
N352        C353   1.359       .  A
C353        C413   1.475       .  S
C353        N354   1.355       .  A
O355        V363   1.905       .  S
O355       C1021   1.264       .  A
O356        V363   1.898       .  S
O356       C1022   1.261       .  A
O357        V363   1.901       .  S
O357       C1023   1.262       .  A
O358        V363   1.900       .  S
O358       C1024   1.260       .  A
O359        V364   1.893       .  S
O359        C368   1.260       .  A
O360        V364   1.894       .  S
O360        C367   1.262       .  A
O361        V364   1.899       .  S
O361        C366   1.261       .  A
O362        V364   1.895       .  S
O362        C365   1.261       .  A
V363       V1020   2.077       .  T
V364       V4955   2.078       .  T
C365       O4947   1.264       .  A
C365        C424   1.480       .  S
C366       O4948   1.261       .  A
C366        C410   1.468       .  S
C367       O4949   1.262       .  A
C367        C399   1.477       .  S
C368       O4950   1.261       .  A
C368        C382   1.468       .  S
C369        C396   1.485       .  S
C369        N370   1.359       .  A
C369        N374   1.359       .  A
N370        C371   1.359       .  A
C371        N372   1.363       .  A
N372        C373   1.362       .  A
C373        C438   1.488       .  S
C373        N374   1.358       .  A
C375        C385   1.482       .  S
C375        N376   1.359       .  A
C375        N380   1.353       .  A
N376        C377   1.362       .  A
C377        N378   1.363       .  A
N378        C379   1.360       .  A
C379        C455   1.484       .  S
C379        N380   1.354       .  A
C381        C382   1.398       .  A
C381        C386   1.400       .  A
C381       H1044   1.084       .  S
C382        C383   1.409       .  A
C383        C384   1.408       .  A
C383       N4982   1.438       .  S
C384        C385   1.406       .  A
C384        H389   1.083       .  S
C385        C386   1.416       .  A
C386       N1043   1.439       .  S
N387       C4978   1.439       .  S
N387        H391   1.046   1_655  S
N387        H392   1.044   1_655  S
H388       C4973   1.084       .  S
N390       C1039   1.438       .  S
N390        H393   1.043       .  S
N390        H394   1.046       .  S
C395       C4988   1.398       .  A
C395        C400   1.399       .  A
C395        H402   1.075       .  S
C396       C1051   1.404       .  A
C396        C397   1.413       .  A
C397        C398   1.408       .  A
C397        N404   1.438       .  S
C398       C1055   1.403       .  A
C398        H403   1.081       .  S
C399       C4990   1.406       .  A
C399        C400   1.411       .  A
C400        N401   1.439       .  S
N401        H405   1.046       .  S
N401        H406   1.043       .  S
N404        H407   1.046       .  S
N404        H408   1.046       .  S
C409       C1066   1.404       .  A
C409        C414   1.399       .  A
C409        H416   1.084       .  S
C410       C5001   1.404       .  A
C410        C411   1.415       .  A
C411        C412   1.399       .  A
C411        N418   1.440       .  S
C412        C413   1.403       .  A
C412        H417   1.083       .  S
C413       C5006   1.413       .  A
C414       C1069   1.412       .  A
C414        N415   1.432       .  S
N415        H419   1.045       .  S
N415        H420   1.045       .  S
N418        H421   1.046       .  S
N418       H1078   1.042       .  S
H422       N5010   1.041       .  S
C423        C424   1.406       .  A
C423        C428   1.410       .  A
C423       H5022   1.084       .  S
C424        C425   1.411       .  A
C425        C426   1.398       .  A
C425        N432   1.438       .  S
C426        C427   1.404       .  A
C426        H431   1.084       .  S
C427        C428   1.413       .  A
C428       N5021   1.437       .  S
N429       C1084   1.437       .  S
N429        H433   1.046       .  S
N429        H434   1.045       .  S
H430       C1079   1.084       .  S
N432        H435   1.043       .  S
N432       H1092   1.046       .  S
H436       N5024   1.046       .  S
C437       C5030   1.404   1_455  A
C438       C1093   1.407       .  A
C438        C439   1.412       .  A
C439        C440   1.398       .  A
C439        N446   1.428       .  S
C440        C441   1.396       .  A
C440        H445   1.085       .  S
C441        C998   1.469       .  S
C441        C770   1.416       .  A
C442       C4705   1.416   1_565  A
C442        N443   1.438   1_655  S
N443        H447   1.046       .  S
N443        H448   1.043       .  S
N446        H449   1.046       .  S
N446        H450   1.046       .  S
C451       C5044   1.408   1_545  A
C451        C456   1.411       .  A
C451        H458   1.084   1_655  S
C452       C1107   1.407   1_565  A
C452        C453   1.411       .  A
C453        C454   1.401       .  A
C453        N460   1.436       .  S
C454        C455   1.405       .  A
C454        H459   1.084       .  S
C455       C1112   1.413   1_565  A
C456       C5047   1.412   1_545  A
C456        N457   1.437   1_655  S
N457        H461   1.046       .  S
N457        H462   1.045       .  S
N460        H463   1.045       .  S
N460        H464   1.046       .  S
C465       C1122   1.402       .  A
C465        C470   1.403       .  A
C465        H472   1.082       .  S
C466       C5057   1.402   1_455  A
C466        C467   1.410   1_554  A
C467        C468   1.407       .  A
C467        N474   1.438       .  S
C468        C469   1.404   1_456  A
C468        H473   1.079       .  S
C469       C5062   1.413       .  A
C470       C1125   1.413       .  A
C470        N471   1.439       .  S
N471        H475   1.046       .  S
N471        H476   1.044       .  S
N474        H477   1.045       .  S
N474       H1134   1.046       .  S
H478       N5066   1.046       .  S
C479        C480   1.397       .  A
C479        C484   1.399       .  A
C479        H486   1.085       .  S
C480       C1137   1.410       .  A
C481       C5072   1.409       .  A
C481        C482   1.410       .  A
C481        N652   1.437       .  S
C482       C5075   1.406       .  A
C482        H487   1.083       .  S
C483       C1138   1.407       .  A
C483        C484   1.418       .  A
C484        N485   1.439       .  S
N485        H489   1.046       .  S
N485        H490   1.045       .  S
N488        C645   1.437       .  S
N488        H491   1.044   1_655  S
N488        H492   1.046       .  S
O493        V501   1.894       .  S
O493       C1159   1.260       .  A
O494        C504   1.259   1_554  A
O495        C505   1.263       .  A
O496       C1162   1.261       .  A
O497        C506   1.261   1_455  A
O498       C5097   1.264   1_445  A
O499        V502   1.907   1_655  S
O499       C5096   1.262       .  A
O500        C503   1.264   1_455  A
V501        V666   2.077   1_565  T
V502       V4601   2.077   1_455  T
C503       O5085   1.260       .  A
C503        C633   1.479       .  S
C504       O1155   1.263       .  A
C504        C644   1.471       .  S
C505       O1154   1.263   1_565  A
C505        C616   1.482       .  S
C506       O5088   1.263       .  A
C506       C5197   1.472       .  S
C507        C647   1.486       .  S
C507        N508   1.361       .  A
C507        N512   1.351       .  A
N508        C509   1.365       .  A
C509        N510   1.363       .  A
N510        C511   1.358       .  A
C511        C591   1.483       .  S
C511        N512   1.352       .  A
C513        C630   1.477       .  S
C513        N514   1.359       .  A
C513        N518   1.355       .  A
N514        C515   1.361       .  A
C515        N516   1.361       .  A
N516        C517   1.358       .  A
C517        C577   1.474       .  S
C517        N518   1.355       .  A
O519        V527   1.904       .  S
O519       C1185   1.264       .  A
O520        V527   1.898       .  S
O520       C1186   1.261       .  A
O521        V527   1.902       .  S
O521       C1187   1.262       .  A
O522        V527   1.902       .  S
O522       C1188   1.261       .  A
O523        V528   1.892       .  S
O523        C532   1.260       .  A
O524        V528   1.893       .  S
O524        C531   1.261       .  A
O525        V528   1.899       .  S
O525        C530   1.260       .  A
O526        V528   1.895       .  S
O526        C529   1.261       .  A
V527       V1184   2.079       .  T
V528       V5119   2.078       .  T
C529       O5111   1.264       .  A
C529        C588   1.479       .  S
C530       O5112   1.261       .  A
C530        C574   1.469       .  S
C531       O5113   1.263       .  A
C531        C563   1.477       .  S
C532       O5114   1.261       .  A
C532        C546   1.467       .  S
C533        C560   1.481       .  S
C533        N534   1.358       .  A
C533        N538   1.358       .  A
N534        C535   1.359       .  A
C535        N536   1.362       .  A
N536        C537   1.361       .  A
C537        C602   1.485       .  S
C537        N538   1.358       .  A
C539        C549   1.480       .  S
C539        N540   1.358       .  A
C539        N544   1.353       .  A
N540        C541   1.361       .  A
C541        N542   1.363       .  A
N542        C543   1.359       .  A
C543        C619   1.485       .  S
C543        N544   1.354       .  A
C545        C546   1.398       .  A
C545        C550   1.400       .  A
C545       H1208   1.084       .  S
C546        C547   1.409       .  A
C547        C548   1.407       .  A
C547       N5146   1.438       .  S
C548        C549   1.406       .  A
C548        H553   1.083       .  S
C549        C550   1.416       .  A
C550       N1207   1.439       .  S
N551       C5142   1.439       .  S
N551        H555   1.046   1_655  S
N551        H556   1.044   1_655  S
H552       C5137   1.084       .  S
N554       C1203   1.438       .  S
N554        H557   1.043       .  S
N554        H558   1.046       .  S
C559       C5152   1.399       .  A
C559        C564   1.399       .  A
C559        H566   1.075       .  S
C560       C1215   1.403       .  A
C560        C561   1.412       .  A
C561        C562   1.408       .  A
C561        N568   1.438       .  S
C562       C1219   1.404       .  A
C562        H567   1.080       .  S
C563       C5154   1.406       .  A
C563        C564   1.411       .  A
C564        N565   1.439       .  S
N565        H569   1.046       .  S
N565        H570   1.044       .  S
N568        H571   1.045       .  S
N568        H572   1.046       .  S
C573       C1230   1.404       .  A
C573        C578   1.400       .  A
C573        H580   1.084       .  S
C574       C5165   1.404       .  A
C574        C575   1.417       .  A
C575        C576   1.399       .  A
C575        N582   1.440       .  S
C576        C577   1.402       .  A
C576        H581   1.082       .  S
C577       C5170   1.411       .  A
C578       C1233   1.412       .  A
C578        N579   1.432       .  S
N579        H583   1.045       .  S
N579        H584   1.045       .  S
N582        H585   1.046       .  S
N582       H1242   1.042       .  S
H586       N5174   1.042       .  S
C587        C588   1.406       .  A
C587        C592   1.410       .  A
C587       H5186   1.084       .  S
C588        C589   1.411       .  A
C589        C590   1.398       .  A
C589        N596   1.437       .  S
C590        C591   1.404       .  A
C590        H595   1.084       .  S
C591        C592   1.413       .  A
C592       N5185   1.437       .  S
N593       C1248   1.437       .  S
N593        H597   1.046       .  S
N593        H598   1.045       .  S
H594       C1243   1.084       .  S
N596        H599   1.043       .  S
N596       H1256   1.046       .  S
H600       N5188   1.046       .  S
C601       C5194   1.403   1_455  A
C602       C1257   1.406       .  A
C602        C603   1.411       .  A
C603        C604   1.398       .  A
C603        N610   1.428       .  S
C604        C605   1.397       .  A
C604        H609   1.085       .  S
C605       C1162   1.469       .  S
C605        C934   1.417       .  A
C606       C4869   1.415   1_565  A
C606        N607   1.439   1_655  S
N607        H611   1.046       .  S
N607        H612   1.044       .  S
N610        H613   1.046       .  S
N610        H614   1.046       .  S
C615       C5208   1.408   1_545  A
C615        C620   1.413       .  A
C615        H622   1.084   1_655  S
C616       C1271   1.406   1_565  A
C616        C617   1.410       .  A
C617        C618   1.400       .  A
C617        N624   1.437       .  S
C618        C619   1.405       .  A
C618        H623   1.084       .  S
C619       C1276   1.413   1_565  A
C620       C5211   1.413   1_545  A
C620        N621   1.437   1_655  S
N621        H625   1.046       .  S
N621        H626   1.045       .  S
N624        H627   1.045       .  S
N624        H628   1.046       .  S
C629       C1286   1.403       .  A
C629        C634   1.402       .  A
C629        H636   1.082       .  S
C630       C5221   1.402   1_455  A
C630        C631   1.410       .  A
C631        C632   1.407       .  A
C631        N638   1.438       .  S
C632        C633   1.404   1_455  A
C632        H637   1.079       .  S
C633       C5226   1.413       .  A
C634       C1289   1.412       .  A
C634        N635   1.439       .  S
N635        H639   1.046       .  S
N635        H640   1.045       .  S
N638        H641   1.045       .  S
N638       H1298   1.046       .  S
H642       N5230   1.046       .  S
C643        C644   1.397       .  A
C643        C648   1.400       .  A
C643        H650   1.085       .  S
C644       C1301   1.409   1_556  A
C645       C5236   1.409   1_554  A
C645        C646   1.410       .  A
C646       C5239   1.407   1_554  A
C646        H651   1.083       .  S
C647       C1302   1.407   1_556  A
C647        C648   1.419       .  A
C648        N649   1.439       .  S
N649        H653   1.046       .  S
N649        H654   1.044       .  S
N652        H655   1.044   1_655  S
N652        H656   1.046       .  S
O657        V665   1.896       .  S
O657       C1323   1.261       .  A
O658       V1157   1.889   1_545  S
O658        C668   1.259       .  A
O659        V829   1.900       .  S
O659        C669   1.264       .  A
O660        V993   1.899       .  S
O660       C1326   1.261   1_565  A
O661        V830   1.896   1_554  S
O661        C670   1.260       .  A
O662        V994   1.907       .  S
O663        V666   1.907       .  S
O664       V1158   1.906       .  S
O664        C667   1.264   1_556  A
V665       O1150   1.892       .  S
V665        O823   1.902   1_554  S
V665        O988   1.906       .  S
V665       V1814   2.077   1_554  T
V666        O825   1.894       .  S
V666        O990   1.901       .  S
V666       O1156   1.903   1_545  S
C667        C797   1.477       .  S
C668       O1319   1.263       .  A
C668        C808   1.469       .  S
C669       O1318   1.263       .  A
C669        C780   1.483       .  S
C671        C811   1.485       .  S
C671        N672   1.360       .  A
C671        N676   1.352       .  A
N672        C673   1.364       .  A
C673        C843   1.472       .  S
C673        N674   1.364       .  A
N674        C675   1.359       .  A
C675        C755   1.485       .  S
C675        N676   1.352       .  A
C677        C794   1.477       .  S
C677        N678   1.359       .  A
C677        N682   1.354       .  A
N678        C679   1.361       .  A
C679        C837   1.471   1_554  S
C679        N680   1.361       .  A
N680        C681   1.359       .  A
C681        C741   1.472       .  S
C681        N682   1.354       .  A
O683        V691   1.907       .  S
O683       C1349   1.265       .  A
O684        V691   1.901       .  S
O684       C1350   1.262       .  A
O685        V691   1.902       .  S
O685       C1351   1.263       .  A
O686        V691   1.902       .  S
O686       C1352   1.261       .  A
O687        V692   1.893       .  S
O687        C696   1.260       .  A
O688        V692   1.893       .  S
O688        C695   1.261       .  A
O689        V692   1.898       .  S
O689        C694   1.260       .  A
O690        V692   1.896       .  S
O690        C693   1.262       .  A
V691       V1348   2.078       .  T
C693        C752   1.481       .  S
C694        C738   1.469       .  S
C695        C727   1.479       .  S
C696        C710   1.469       .  S
C697        C724   1.482       .  S
C697        N698   1.358       .  A
C697        N702   1.358       .  A
N698        C699   1.360       .  A
C699       C1033   1.474   1_545  S
C699        N700   1.363       .  A
N700        C701   1.361       .  A
C701        C766   1.487       .  S
C701        N702   1.358       .  A
C703        C713   1.481       .  S
C703        N704   1.359       .  A
C703        N708   1.353       .  A
N704        C705   1.361       .  A
C705       C1027   1.470       .  S
C705        N706   1.363       .  A
N706        C707   1.359       .  A
C707        C783   1.484       .  S
C707        N708   1.354       .  A
C709        C710   1.398       .  A
C709        C714   1.401       .  A
C709       H1372   1.084       .  S
C710        C711   1.410       .  A
C711        C712   1.408       .  A
C712        C713   1.406       .  A
C712        H717   1.083       .  S
C713        C714   1.416       .  A
C714       N1371   1.439       .  S
N715        H719   1.046       .  S
N715        H720   1.044       .  S
N718       C1367   1.438       .  S
N718        H721   1.044       .  S
N718        H722   1.046       .  S
C723        C728   1.400       .  A
C723        H730   1.076       .  S
C724       C1379   1.402       .  A
C724        C725   1.411       .  A
C725        C726   1.409       .  A
C725        N732   1.438       .  S
C726       C1383   1.406       .  A
C726        H731   1.081       .  S
C727        C728   1.412       .  A
C728        N729   1.439       .  S
N729        H733   1.046       .  S
N729        H734   1.043       .  S
N732        H735   1.044       .  S
N732        H736   1.046       .  S
C737       C1394   1.404       .  A
C737        C742   1.400       .  A
C737        H744   1.084       .  S
C738        C739   1.417       .  A
C739        C740   1.399       .  A
C739        N746   1.440       .  S
C740        C741   1.403       .  A
C740        H745   1.082       .  S
C742       C1397   1.412       .  A
C742        N743   1.432       .  S
N743        H747   1.045       .  S
N743        H748   1.045       .  S
N746        H749   1.046       .  S
N746       H1406   1.042       .  S
C751        C752   1.406       .  A
C751        C756   1.411       .  A
C752        C753   1.411       .  A
C753        C754   1.399       .  A
C753        N760   1.438       .  S
C754        C755   1.405       .  A
C754        H759   1.084       .  S
C755        C756   1.413       .  A
N757       C1412   1.437       .  S
N757        H761   1.046       .  S
N757        H762   1.045       .  S
H758       C1407   1.084       .  S
N760        H763   1.044       .  S
N760       H1420   1.046       .  S
C765       C1098   1.405       .  A
C765       H1100   1.084       .  S
C766       C1421   1.407   1_545  A
C766        C767   1.411       .  A
C767        C768   1.398       .  A
C767        N774   1.429       .  S
C768        C769   1.397       .  A
C768        H773   1.085       .  S
C769       C1326   1.471       .  S
C769       C1754   1.417   1_545  A
C770       C1093   1.407       .  A
C770        N771   1.439       .  S
N771        H775   1.046       .  S
N771        H776   1.043       .  S
H772       C1093   1.084       .  S
N774        H777   1.045       .  S
N774        H778   1.046       .  S
C779        C784   1.412       .  A
C779        H786   1.084       .  S
C780       C1435   1.407       .  A
C780        C781   1.411       .  A
C781        C782   1.400       .  A
C781        N788   1.437       .  S
C782        C783   1.404       .  A
C782        H787   1.084       .  S
C783       C1440   1.413       .  A
C784        N785   1.437       .  S
N785        H789   1.046       .  S
N785        H790   1.045       .  S
N788        H791   1.045       .  S
N788        H792   1.046       .  S
C793       C1450   1.403       .  A
C793        C798   1.403       .  A
C793        H800   1.082       .  S
C794        C795   1.410   1_554  A
C795        C796   1.406       .  A
C795        N802   1.438       .  S
C796        C797   1.403   1_556  A
C796        H801   1.079       .  S
C798       C1453   1.412       .  A
C798        N799   1.439       .  S
N799        H803   1.046       .  S
N799        H804   1.044       .  S
N802        H805   1.045       .  S
N802       H1462   1.046       .  S
C807        C808   1.397       .  A
C807        C812   1.399       .  A
C807        H814   1.085       .  S
C808       C1465   1.409       .  A
C809        C810   1.409       .  A
C809        N980   1.438       .  S
C810        H815   1.083       .  S
C811       C1466   1.407       .  A
C811        C812   1.418       .  A
C812        N813   1.439       .  S
N813        H817   1.046       .  S
N813        H818   1.044       .  S
N816        C973   1.437       .  S
N816        H819   1.044       .  S
N816        H820   1.046       .  S
O821        V829   1.895       .  S
O821       C1487   1.261       .  A
O822        V993   1.890   1_545  S
O822        C832   1.259   1_554  A
O823        C833   1.264       .  A
O824       V1157   1.900       .  S
O824       C1490   1.260   1_565  A
O825        C834   1.259       .  A
O826       V1158   1.906       .  S
O827        V830   1.909       .  S
O828        V994   1.908       .  S
O828        C831   1.265       .  A
V829        O986   1.891       .  S
V829       O1152   1.902       .  S
V829       V1650   2.077       .  T
V830       O1154   1.902       .  S
V830        O992   1.906   1_545  S
C831        C961   1.479       .  S
C832       O1483   1.262       .  A
C832        C972   1.470       .  S
C833       O1482   1.263       .  A
C833        C944   1.485       .  S
C835        C975   1.485       .  S
C835        N836   1.361       .  A
C835        N840   1.352       .  A
N836        C837   1.365       .  A
C837        N838   1.362       .  A
N838        C839   1.357       .  A
C839        C919   1.482       .  S
C839        N840   1.352       .  A
C841        C958   1.476       .  S
C841        N842   1.358       .  A
C841        N846   1.355       .  A
N842        C843   1.361       .  A
C843        N844   1.362       .  A
N844        C845   1.360       .  A
C845        C905   1.478       .  S
C845        N846   1.356       .  A
O847        V855   1.907       .  S
O847       C1513   1.265       .  A
O848        V855   1.900       .  S
O848       C1514   1.262       .  A
O849        V855   1.899       .  S
O849       C1515   1.261       .  A
O850        V855   1.900       .  S
O850       C1516   1.260       .  A
O851        V856   1.895       .  S
O851        C860   1.261       .  A
O852        V856   1.895       .  S
O852        C859   1.262       .  A
O853        V856   1.900       .  S
O853        C858   1.261       .  A
O854        V856   1.896       .  S
O854        C857   1.261       .  A
V855       V1512   2.077       .  T
C857        C916   1.483       .  S
C858        C902   1.472       .  S
C859        C891   1.478       .  S
C860        C874   1.472       .  S
C861        C888   1.480       .  S
C861        N862   1.359       .  A
C861        N866   1.357       .  A
N862        C863   1.360       .  A
C863       C1197   1.473   1_545  S
C863        N864   1.361       .  A
N864        C865   1.361       .  A
C865        C930   1.487       .  S
C865        N866   1.357       .  A
C867        C877   1.483       .  S
C867        N868   1.359       .  A
C867        N872   1.355       .  A
N868        C869   1.362       .  A
C869       C1191   1.471       .  S
C869        N870   1.362       .  A
N870        C871   1.359       .  A
C871        C947   1.485       .  S
C871        N872   1.355       .  A
C873        C874   1.399       .  A
C873        C878   1.402       .  A
C873       H1536   1.084       .  S
C874        C875   1.410       .  A
C875        C876   1.409       .  A
C876        C877   1.406       .  A
C876        H881   1.083       .  S
C877        C878   1.416       .  A
C878       N1535   1.439       .  S
N879        H883   1.046       .  S
N879        H884   1.044       .  S
N882       C1531   1.438       .  S
N882        H885   1.044       .  S
N882        H886   1.046       .  S
C887        C892   1.400       .  A
C887        H894   1.076       .  S
C888       C1543   1.403       .  A
C888        C889   1.411       .  A
C889        C890   1.408       .  A
C889        N896   1.438       .  S
C890       C1547   1.404       .  A
C890        H895   1.080       .  S
C891        C892   1.412       .  A
C892        N893   1.439       .  S
N893        H897   1.046       .  S
N893        H898   1.044       .  S
N896        H899   1.045       .  S
N896        H900   1.046       .  S
C901       C1558   1.404       .  A
C901        C906   1.400       .  A
C901        H908   1.084       .  S
C902        C903   1.416       .  A
C903        C904   1.400       .  A
C903        N910   1.440       .  S
C904        C905   1.404       .  A
C904        H909   1.083       .  S
C906       C1561   1.412       .  A
C906        N907   1.432       .  S
N907        H911   1.045       .  S
N907        H912   1.045       .  S
N910        H913   1.046       .  S
N910       H1570   1.042       .  S
C915        C916   1.407       .  A
C915        C920   1.410       .  A
C916        C917   1.413       .  A
C917        C918   1.399       .  A
C917        N924   1.437       .  S
C918        C919   1.403       .  A
C918        H923   1.084       .  S
C919        C920   1.412       .  A
N921       C1576   1.437       .  S
N921        H925   1.046       .  S
N921        H926   1.045       .  S
H922       C1571   1.084       .  S
N924        H927   1.042       .  S
N924       H1584   1.046       .  S
C929       C1262   1.406       .  A
C929       H1264   1.084       .  S
C930       C1585   1.407   1_545  A
C930        C931   1.414       .  A
C931        C932   1.398       .  A
C931        N938   1.430       .  S
C932        C933   1.396       .  A
C932        H937   1.084       .  S
C933       C1490   1.466       .  S
C933       C1918   1.414   1_545  A
C934       C1257   1.407       .  A
C934        N935   1.438       .  S
N935        H939   1.046       .  S
N935        H940   1.043       .  S
H936       C1257   1.084       .  S
N938        H941   1.046       .  S
N938        H942   1.046       .  S
C943        C948   1.411       .  A
C943        H950   1.084       .  S
C944       C1599   1.406       .  A
C944        C945   1.411       .  A
C945        C946   1.401       .  A
C945        N952   1.436       .  S
C946        C947   1.404       .  A
C946        H951   1.084       .  S
C947       C1604   1.414       .  A
C948        N949   1.437       .  S
N949        H953   1.046       .  S
N949        H954   1.045       .  S
N952        H955   1.045       .  S
N952        H956   1.046       .  S
C957       C1614   1.403       .  A
C957        C962   1.403       .  A
C957        H964   1.083       .  S
C958        C959   1.410       .  A
C959        C960   1.407       .  A
C959        N966   1.438       .  S
C960        C961   1.404       .  A
C960        H965   1.080       .  S
C962       C1617   1.413       .  A
C962        N963   1.439       .  S
N963        H967   1.046       .  S
N963        H968   1.044       .  S
N966        H969   1.045       .  S
N966       H1626   1.046       .  S
C971        C972   1.397       .  A
C971        C976   1.399       .  A
C971        H978   1.084       .  S
C972       C1629   1.410   1_556  A
C973        C974   1.410       .  A
C974        H979   1.083       .  S
C975       C1630   1.407   1_556  A
C975        C976   1.418       .  A
C976        N977   1.439       .  S
N977        H981   1.046       .  S
N977        H982   1.044       .  S
N980        H983   1.044       .  S
N980        H984   1.046       .  S
O985        V993   1.893       .  S
O985       C1651   1.261       .  A
O986        C996   1.259       .  A
O987       V1157   1.901       .  S
O987        C997   1.264       .  A
O988       C1654   1.263       .  A
O989       V1158   1.901   1_554  S
O989        C998   1.261       .  A
O991        V994   1.909       .  S
O992        C995   1.264   1_556  A
V993       O1151   1.898   1_554  S
V993       V1486   2.078   1_564  T
V994       O1153   1.901       .  S
C995       C1125   1.478       .  S
C996       O1647   1.263       .  A
C996       C1136   1.472       .  S
C997       O1646   1.264   1_565  A
C997       C1108   1.487       .  S
C999       C1139   1.484       .  S
C999       N1000   1.359       .  A
C999       N1004   1.352       .  A
N1000      C1001   1.363       .  A
C1001      C1171   1.471       .  S
C1001      N1002   1.364       .  A
N1002      C1003   1.359       .  A
C1003      C1083   1.486       .  S
C1003      N1004   1.353       .  A
C1005      C1122   1.476       .  S
C1005      N1006   1.358       .  A
C1005      N1010   1.355       .  A
N1006      C1007   1.360       .  A
C1007      C1165   1.469   1_554  S
C1007      N1008   1.360       .  A
N1008      C1009   1.358       .  A
C1009      C1069   1.473       .  S
C1009      N1010   1.355       .  A
O1011      V1019   1.904       .  S
O1011      C1677   1.264       .  A
O1012      V1019   1.897       .  S
O1012      C1678   1.261       .  A
O1013      V1019   1.904       .  S
O1013      C1679   1.263       .  A
O1014      V1019   1.901       .  S
O1014      C1680   1.261       .  A
O1015      V1020   1.899       .  S
O1015      C1024   1.262       .  A
O1016      V1020   1.902       .  S
O1016      C1023   1.263       .  A
O1017      V1020   1.897       .  S
O1017      C1022   1.261       .  A
O1018      V1020   1.896       .  S
O1018      C1021   1.262       .  A
V1019      V1676   2.078       .  T
C1021      C1080   1.481       .  S
C1022      C1066   1.469       .  S
C1023      C1055   1.475       .  S
C1024      C1038   1.471       .  S
C1025      C1052   1.479       .  S
C1025      N1026   1.357       .  A
C1025      N1030   1.358       .  A
N1026      C1027   1.359       .  A
C1027      N1028   1.362       .  A
N1028      C1029   1.360       .  A
C1029      C1094   1.483       .  S
C1029      N1030   1.358       .  A
C1031      C1041   1.484       .  S
C1031      N1032   1.360       .  A
C1031      N1036   1.354       .  A
N1032      C1033   1.362       .  A
C1033      N1034   1.364       .  A
N1034      C1035   1.360       .  A
C1035      C1111   1.484       .  S
C1035      N1036   1.354       .  A
C1037      C1038   1.398       .  A
C1037      C1042   1.402       .  A
C1037      H1700   1.084       .  S
C1038      C1039   1.411       .  A
C1039      C1040   1.408       .  A
C1040      C1041   1.406       .  A
C1040      H1045   1.083       .  S
C1041      C1042   1.417       .  A
C1042      N1699   1.439       .  S
N1043      H1047   1.046       .  S
N1043      H1048   1.044       .  S
N1046      C1695   1.438       .  S
N1046      H1049   1.044       .  S
N1046      H1050   1.046       .  S
C1051      C1056   1.402       .  A
C1051      H1058   1.077       .  S
C1052      C1707   1.399       .  A
C1052      C1053   1.411       .  A
C1053      C1054   1.409       .  A
C1053      N1060   1.437       .  S
C1054      C1711   1.405       .  A
C1054      H1059   1.082       .  S
C1055      C1056   1.408       .  A
C1056      N1057   1.439       .  S
N1057      H1061   1.046       .  S
N1057      H1062   1.045       .  S
N1060      H1063   1.046       .  S
N1060      H1064   1.046       .  S
C1065      C1722   1.404       .  A
C1065      C1070   1.400       .  A
C1065      H1072   1.084       .  S
C1066      C1067   1.417       .  A
C1067      C1068   1.399       .  A
C1067      N1074   1.440       .  S
C1068      C1069   1.402       .  A
C1068      H1073   1.082       .  S
C1070      C1725   1.412       .  A
C1070      N1071   1.432       .  S
N1071      H1075   1.045       .  S
N1071      H1076   1.045       .  S
N1074      H1077   1.046       .  S
N1074      H1734   1.041       .  S
C1079      C1080   1.407       .  A
C1079      C1084   1.411       .  A
C1080      C1081   1.412       .  A
C1081      C1082   1.399       .  A
C1081      N1088   1.438       .  S
C1082      C1083   1.405       .  A
C1082      H1087   1.084       .  S
C1083      C1084   1.414       .  A
N1085      C1740   1.437       .  S
N1085      H1089   1.046       .  S
N1085      H1090   1.045       .  S
H1086      C1735   1.084       .  S
N1088      H1091   1.043       .  S
N1088      H1748   1.046       .  S
C1094      C1749   1.404       .  A
C1094      C1095   1.412       .  A
C1095      C1096   1.402       .  A
C1095      N1102   1.433       .  S
C1096      C1097   1.398       .  A
C1096      H1101   1.085       .  S
C1097      C1654   1.472       .  S
C1097      C1426   1.418       .  A
C1098      N1099   1.438       .  S
N1099      H1103   1.045       .  S
N1099      H1104   1.043       .  S
N1102      H1105   1.044       .  S
N1102      H1106   1.046       .  S
C1107      C1112   1.410       .  A
C1107      H1114   1.084       .  S
C1108      C1763   1.408   1_565  A
C1108      C1109   1.412       .  A
C1109      C1110   1.401       .  A
C1109      N1116   1.436       .  S
C1110      C1111   1.403       .  A
C1110      H1115   1.084       .  S
C1111      C1768   1.413   1_565  A
C1112      N1113   1.437       .  S
N1113      H1117   1.046       .  S
N1113      H1118   1.045       .  S
N1116      H1119   1.045       .  S
N1116      H1120   1.046       .  S
C1121      C1778   1.401       .  A
C1121      C1126   1.401       .  A
C1121      H1128   1.082       .  S
C1122      C1123   1.410   1_554  A
C1123      C1124   1.406       .  A
C1123      N1130   1.438       .  S
C1124      C1125   1.404   1_556  A
C1124      H1129   1.079       .  S
C1126      C1781   1.412       .  A
C1126      N1127   1.438       .  S
N1127      H1131   1.046       .  S
N1127      H1132   1.044       .  S
N1130      H1133   1.045       .  S
N1130      H1790   1.046       .  S
C1135      C1136   1.398       .  A
C1135      C1140   1.400       .  A
C1135      H1142   1.084       .  S
C1136      C1793   1.410       .  A
C1137      C1138   1.411       .  A
C1137      N1308   1.437       .  S
C1138      H1143   1.083       .  S
C1139      C1794   1.407       .  A
C1139      C1140   1.417       .  A
C1140      N1141   1.439       .  S
N1141      H1145   1.046       .  S
N1141      H1146   1.044       .  S
N1144      C1301   1.437       .  S
N1144      H1147   1.045       .  S
N1144      H1148   1.046       .  S
O1149      V1157   1.895       .  S
O1149      C1815   1.261       .  A
O1150      C1160   1.260       .  A
O1151      C1161   1.263       .  A
O1152      C1818   1.262       .  A
O1153      C1162   1.260       .  A
O1155      V1158   1.910       .  S
O1156      C1159   1.263       .  A
V1157      V1322   2.077   1_565  T
C1159      C1289   1.475       .  S
C1160      O1811   1.262   1_554  A
C1160      C1300   1.471   1_554  S
C1161      O1810   1.265   1_565  A
C1161      C1272   1.487       .  S
C1163      C1303   1.482       .  S
C1163      N1164   1.359       .  A
C1163      N1168   1.352       .  A
N1164      C1165   1.363       .  A
C1165      N1166   1.362       .  A
N1166      C1167   1.358       .  A
C1167      C1247   1.483       .  S
C1167      N1168   1.354       .  A
C1169      C1286   1.474       .  S
C1169      N1170   1.358       .  A
C1169      N1174   1.354       .  A
N1170      C1171   1.361       .  A
C1171      N1172   1.362       .  A
N1172      C1173   1.359       .  A
C1173      C1233   1.474       .  S
C1173      N1174   1.354       .  A
O1175      V1183   1.904       .  S
O1175      C1841   1.263       .  A
O1176      V1183   1.897       .  S
O1176      C1842   1.261       .  A
O1177      V1183   1.906       .  S
O1177      C1843   1.263       .  A
O1178      V1183   1.904       .  S
O1178      C1844   1.261       .  A
O1179      V1184   1.897       .  S
O1179      C1188   1.262       .  A
O1180      V1184   1.897       .  S
O1180      C1187   1.262       .  A
O1181      V1184   1.897       .  S
O1181      C1186   1.260       .  A
O1182      V1184   1.893       .  S
O1182      C1185   1.261       .  A
V1183      V1840   2.078       .  T
C1185      C1244   1.478       .  S
C1186      C1230   1.467       .  S
C1187      C1219   1.475       .  S
C1188      C1202   1.472       .  S
C1189      C1216   1.479       .  S
C1189      N1190   1.358       .  A
C1189      N1194   1.357       .  A
N1190      C1191   1.360       .  A
C1191      N1192   1.362       .  A
N1192      C1193   1.359       .  A
C1193      C1258   1.482       .  S
C1193      N1194   1.357       .  A
C1195      C1205   1.483       .  S
C1195      N1196   1.360       .  A
C1195      N1200   1.353       .  A
N1196      C1197   1.363       .  A
C1197      N1198   1.363       .  A
N1198      C1199   1.359       .  A
C1199      C1275   1.481       .  S
C1199      N1200   1.353       .  A
C1201      C1202   1.398       .  A
C1201      C1206   1.401       .  A
C1201      H1864   1.084       .  S
C1202      C1203   1.411       .  A
C1203      C1204   1.409       .  A
C1204      C1205   1.406       .  A
C1204      H1209   1.084       .  S
C1205      C1206   1.417       .  A
C1206      N1863   1.439       .  S
N1207      H1211   1.046       .  S
N1207      H1212   1.044       .  S
N1210      C1859   1.438       .  S
N1210      H1213   1.044       .  S
N1210      H1214   1.046       .  S
C1215      C1220   1.400       .  A
C1215      H1222   1.075       .  S
C1216      C1871   1.399       .  A
C1216      C1217   1.411       .  A
C1217      C1218   1.409       .  A
C1217      N1224   1.437       .  S
C1218      C1875   1.405       .  A
C1218      H1223   1.082       .  S
C1219      C1220   1.409       .  A
C1220      N1221   1.439       .  S
N1221      H1225   1.046       .  S
N1221      H1226   1.045       .  S
N1224      H1227   1.045       .  S
N1224      H1228   1.046       .  S
C1229      C1886   1.404       .  A
C1229      C1234   1.399       .  A
C1229      H1236   1.084       .  S
C1230      C1231   1.415       .  A
C1231      C1232   1.398       .  A
C1231      N1238   1.440       .  S
C1232      C1233   1.403       .  A
C1232      H1237   1.082       .  S
C1234      C1889   1.411       .  A
C1234      N1235   1.432       .  S
N1235      H1239   1.044       .  S
N1235      H1240   1.045       .  S
N1238      H1241   1.046       .  S
N1238      H1898   1.042       .  S
C1243      C1244   1.406       .  A
C1243      C1248   1.410       .  A
C1244      C1245   1.412       .  A
C1245      C1246   1.398       .  A
C1245      N1252   1.438       .  S
C1246      C1247   1.404       .  A
C1246      H1251   1.084       .  S
C1247      C1248   1.414       .  A
N1249      C1904   1.437       .  S
N1249      H1253   1.046       .  S
N1249      H1254   1.045       .  S
H1250      C1899   1.084       .  S
N1252      H1255   1.043       .  S
N1252      H1912   1.046       .  S
C1258      C1913   1.403       .  A
C1258      C1259   1.411       .  A
C1259      C1260   1.400       .  A
C1259      N1266   1.432       .  S
C1260      C1261   1.396       .  A
C1260      H1265   1.085       .  S
C1261      C1818   1.469       .  S
C1261      C1590   1.418       .  A
C1262      N1263   1.438       .  S
N1263      H1267   1.045       .  S
N1263      H1268   1.043       .  S
N1266      H1269   1.043       .  S
N1266      H1270   1.046       .  S
C1271      C1276   1.410       .  A
C1271      H1278   1.084       .  S
C1272      C1927   1.408   1_565  A
C1272      C1273   1.413       .  A
C1273      C1274   1.400       .  A
C1273      N1280   1.436       .  S
C1274      C1275   1.402       .  A
C1274      H1279   1.084       .  S
C1275      C1932   1.412   1_565  A
C1276      N1277   1.437       .  S
N1277      H1281   1.046       .  S
N1277      H1282   1.045       .  S
N1280      H1283   1.045       .  S
N1280      H1284   1.046       .  S
C1285      C1942   1.403       .  A
C1285      C1290   1.403       .  A
C1285      H1292   1.081       .  S
C1286      C1287   1.409       .  A
C1287      C1288   1.405       .  A
C1287      N1294   1.438       .  S
C1288      C1289   1.403       .  A
C1288      H1293   1.079       .  S
C1290      C1945   1.413       .  A
C1290      N1291   1.438       .  S
N1291      H1295   1.046       .  S
N1291      H1296   1.044       .  S
N1294      H1297   1.045       .  S
N1294      H1954   1.046       .  S
C1299      C1300   1.398       .  A
C1299      C1304   1.400       .  A
C1299      H1306   1.084       .  S
C1300      C1957   1.410   1_556  A
C1301      C1302   1.411       .  A
C1302      H1307   1.083       .  S
C1303      C1958   1.406   1_556  A
C1303      C1304   1.416       .  A
C1304      N1305   1.439       .  S
N1305      H1309   1.046       .  S
N1305      H1310   1.044       .  S
N1308      H1311   1.044       .  S
N1308      H1312   1.046       .  S
O1313      V1321   1.897       .  S
O1313      C1979   1.261       .  A
O1314      V1813   1.893   1_545  S
O1314      C1324   1.260       .  A
O1315      V1485   1.900       .  S
O1315      C1325   1.264       .  A
O1316      V1649   1.903       .  S
O1316      C1982   1.262   1_565  A
O1317      V1486   1.903   1_554  S
O1317      C1326   1.261       .  A
O1318      V1650   1.902       .  S
O1319      V1322   1.909       .  S
O1320      V1814   1.905       .  S
O1320      C1323   1.264   1_556  A
V1321      O1806   1.890       .  S
V1321      O1479   1.899   1_554  S
V1321      O1644   1.899       .  S
V1321      V2470   2.076   1_554  T
V1322      O1481   1.899       .  S
V1322      O1646   1.907       .  S
V1322      O1812   1.908   1_545  S
C1323      C1453   1.479       .  S
C1324      O1975   1.263       .  A
C1324      C1464   1.472       .  S
C1325      O1974   1.264       .  A
C1325      C1436   1.487       .  S
C1327      C1467   1.483       .  S
C1327      N1328   1.359       .  A
C1327      N1332   1.353       .  A
N1328      C1329   1.363       .  A
C1329      C1499   1.471       .  S
C1329      N1330   1.363       .  A
N1330      C1331   1.359       .  A
C1331      C1411   1.486       .  S
C1331      N1332   1.354       .  A
C1333      C1450   1.478       .  S
C1333      N1334   1.360       .  A
C1333      N1338   1.355       .  A
N1334      C1335   1.362       .  A
C1335      C1493   1.472   1_554  S
C1335      N1336   1.361       .  A
N1336      C1337   1.358       .  A
C1337      C1397   1.475       .  S
C1337      N1338   1.355       .  A
O1339      V1347   1.906       .  S
O1339      C2005   1.264       .  A
O1340      V1347   1.898       .  S
O1340      C2006   1.261       .  A
O1341      V1347   1.907       .  S
O1341      C2007   1.264       .  A
O1342      V1347   1.906       .  S
O1342      C2008   1.262       .  A
O1343      V1348   1.897       .  S
O1343      C1352   1.262       .  A
O1344      V1348   1.898       .  S
O1344      C1351   1.262       .  A
O1345      V1348   1.897       .  S
O1345      C1350   1.260       .  A
O1346      V1348   1.892       .  S
O1346      C1349   1.261       .  A
V1347      V2004   2.079       .  T
C1349      C1408   1.480       .  S
C1350      C1394   1.470       .  S
C1351      C1383   1.477       .  S
C1352      C1366   1.472       .  S
C1353      C1380   1.478       .  S
C1353      N1354   1.358       .  A
C1353      N1358   1.357       .  A
N1354      C1355   1.360       .  A
C1355      C1689   1.469   1_545  S
C1355      N1356   1.361       .  A
N1356      C1357   1.358       .  A
C1357      C1422   1.481       .  S
C1357      N1358   1.357       .  A
C1359      C1369   1.485       .  S
C1359      N1360   1.361       .  A
C1359      N1364   1.353       .  A
N1360      C1361   1.363       .  A
C1361      C1683   1.477       .  S
C1361      N1362   1.365       .  A
N1362      C1363   1.361       .  A
C1363      C1439   1.485       .  S
C1363      N1364   1.353       .  A
C1365      C1366   1.398       .  A
C1365      C1370   1.401       .  A
C1365      H2028   1.084       .  S
C1366      C1367   1.411       .  A
C1367      C1368   1.409       .  A
C1368      C1369   1.406       .  A
C1368      H1373   1.083       .  S
C1369      C1370   1.418       .  A
C1370      N2027   1.439       .  S
N1371      H1375   1.046       .  S
N1371      H1376   1.044       .  S
N1374      C2023   1.438       .  S
N1374      H1377   1.044       .  S
N1374      H1378   1.046       .  S
C1379      C1384   1.400       .  A
C1379      H1386   1.075       .  S
C1380      C2035   1.398       .  A
C1380      C1381   1.410       .  A
C1381      C1382   1.410       .  A
C1381      N1388   1.437       .  S
C1382      C2039   1.406       .  A
C1382      H1387   1.082       .  S
C1383      C1384   1.409       .  A
C1384      N1385   1.439       .  S
N1385      H1389   1.046       .  S
N1385      H1390   1.045       .  S
N1388      H1391   1.045       .  S
N1388      H1392   1.046       .  S
C1393      C2050   1.404       .  A
C1393      C1398   1.399       .  A
C1393      H1400   1.084       .  S
C1394      C1395   1.417       .  A
C1395      C1396   1.400       .  A
C1395      N1402   1.440       .  S
C1396      C1397   1.402       .  A
C1396      H1401   1.082       .  S
C1398      C2053   1.412       .  A
C1398      N1399   1.433       .  S
N1399      H1403   1.044       .  S
N1399      H1404   1.045       .  S
N1402      H1405   1.046       .  S
N1402      H2062   1.042       .  S
C1407      C1408   1.406       .  A
C1407      C1412   1.411       .  A
C1408      C1409   1.412       .  A
C1409      C1410   1.399       .  A
C1409      N1416   1.438       .  S
C1410      C1411   1.404       .  A
C1410      H1415   1.084       .  S
C1411      C1412   1.414       .  A
N1413      C2068   1.437       .  S
N1413      H1417   1.046       .  S
N1413      H1418   1.044       .  S
H1414      C2063   1.084       .  S
N1416      H1419   1.044       .  S
N1416      H2076   1.046       .  S
C1421      C1754   1.408       .  A
C1421      H1756   1.084       .  S
C1422      C2077   1.403   1_545  A
C1422      C1423   1.410       .  A
C1423      C1424   1.400       .  A
C1423      N1430   1.432       .  S
C1424      C1425   1.397       .  A
C1424      H1429   1.085       .  S
C1425      C1982   1.471       .  S
C1425      C2410   1.419   1_545  A
C1426      C1749   1.406       .  A
C1426      N1427   1.439       .  S
N1427      H1431   1.045       .  S
N1427      H1432   1.043       .  S
H1428      C1749   1.084       .  S
N1430      H1433   1.044       .  S
N1430      H1434   1.046       .  S
C1435      C1440   1.411       .  A
C1435      H1442   1.084       .  S
C1436      C2091   1.408       .  A
C1436      C1437   1.412       .  A
C1437      C1438   1.401       .  A
C1437      N1444   1.436       .  S
C1438      C1439   1.404       .  A
C1438      H1443   1.084       .  S
C1439      C2096   1.413       .  A
C1440      N1441   1.437       .  S
N1441      H1445   1.046       .  S
N1441      H1446   1.045       .  S
N1444      H1447   1.045       .  S
N1444      H1448   1.046       .  S
C1449      C2106   1.403       .  A
C1449      C1454   1.403       .  A
C1449      H1456   1.082       .  S
C1450      C1451   1.410   1_554  A
C1451      C1452   1.407       .  A
C1451      N1458   1.438       .  S
C1452      C1453   1.404   1_556  A
C1452      H1457   1.080       .  S
C1454      C2109   1.412       .  A
C1454      N1455   1.438       .  S
N1455      H1459   1.046       .  S
N1455      H1460   1.044       .  S
N1458      H1461   1.045       .  S
N1458      H2118   1.046       .  S
C1463      C1464   1.399       .  A
C1463      C1468   1.401       .  A
C1463      H1470   1.084       .  S
C1464      C2121   1.410       .  A
C1465      C1466   1.410       .  A
C1465      N1636   1.437       .  S
C1466      H1471   1.083       .  S
C1467      C2122   1.406       .  A
C1467      C1468   1.416       .  A
C1468      N1469   1.439       .  S
N1469      H1473   1.046       .  S
N1469      H1474   1.044       .  S
N1472      C1629   1.437       .  S
N1472      H1475   1.044       .  S
N1472      H1476   1.046       .  S
O1477      V1485   1.895       .  S
O1477      C2143   1.261       .  A
O1478      V1649   1.893   1_545  S
O1478      C1488   1.260       .  A
O1479      C1489   1.264       .  A
O1480      V1813   1.905       .  S
O1480      C2146   1.263   1_565  A
O1481      C1490   1.260       .  A
O1482      V1814   1.903       .  S
O1483      V1486   1.908       .  S
O1484      V1650   1.906       .  S
O1484      C1487   1.264       .  A
V1485      O1642   1.891       .  S
V1485      O1808   1.898       .  S
V1485      V2306   2.076       .  T
V1486      O1810   1.908       .  S
V1486      O1648   1.905   1_545  S
C1487      C1617   1.479       .  S
C1488      O2139   1.262   1_554  A
C1488      C1628   1.473   1_554  S
C1489      O2138   1.264       .  A
C1489      C1600   1.485       .  S
C1491      C1631   1.486       .  S
C1491      N1492   1.360       .  A
C1491      N1496   1.354       .  A
N1492      C1493   1.364       .  A
C1493      N1494   1.362       .  A
N1494      C1495   1.359       .  A
C1495      C1575   1.488       .  S
C1495      N1496   1.355       .  A
C1497      C1614   1.475       .  S
C1497      N1498   1.359       .  A
C1497      N1502   1.355       .  A
N1498      C1499   1.361       .  A
C1499      N1500   1.362       .  A
N1500      C1501   1.359       .  A
C1501      C1561   1.475       .  S
C1501      N1502   1.354       .  A
O1503      V1511   1.906       .  S
O1503      C2169   1.264       .  A
O1504      V1511   1.899       .  S
O1504      C2170   1.261       .  A
O1505      V1511   1.906       .  S
O1505      C2171   1.263       .  A
O1506      V1511   1.905       .  S
O1506      C2172   1.262       .  A
O1507      V1512   1.896       .  S
O1507      C1516   1.261       .  A
O1508      V1512   1.898       .  S
O1508      C1515   1.262       .  A
O1509      V1512   1.898       .  S
O1509      C1514   1.261       .  A
O1510      V1512   1.896       .  S
O1510      C1513   1.261       .  A
V1511      V2168   2.078       .  T
C1513      C1572   1.482       .  S
C1514      C1558   1.470       .  S
C1515      C1547   1.474       .  S
C1516      C1530   1.469       .  S
C1517      C1544   1.478       .  S
C1517      N1518   1.358       .  A
C1517      N1522   1.358       .  A
N1518      C1519   1.360       .  A
C1519      C1853   1.471   1_545  S
C1519      N1520   1.363       .  A
N1520      C1521   1.360       .  A
C1521      C1586   1.483       .  S
C1521      N1522   1.358       .  A
C1523      C1533   1.481       .  S
C1523      N1524   1.359       .  A
C1523      N1528   1.353       .  A
N1524      C1525   1.362       .  A
C1525      C1847   1.471       .  S
C1525      N1526   1.363       .  A
N1526      C1527   1.359       .  A
C1527      C1603   1.482       .  S
C1527      N1528   1.353       .  A
C1529      C1530   1.398       .  A
C1529      C1534   1.400       .  A
C1529      H2192   1.084       .  S
C1530      C1531   1.411       .  A
C1531      C1532   1.408       .  A
C1532      C1533   1.405       .  A
C1532      H1537   1.084       .  S
C1533      C1534   1.416       .  A
C1534      N2191   1.439       .  S
N1535      H1539   1.046       .  S
N1535      H1540   1.044       .  S
N1538      C2187   1.438       .  S
N1538      H1541   1.044       .  S
N1538      H1542   1.046       .  S
C1543      C1548   1.400       .  A
C1543      H1550   1.076       .  S
C1544      C2199   1.398       .  A
C1544      C1545   1.410       .  A
C1545      C1546   1.410       .  A
C1545      N1552   1.437       .  S
C1546      C2203   1.406       .  A
C1546      H1551   1.081       .  S
C1547      C1548   1.408       .  A
C1548      N1549   1.439       .  S
N1549      H1553   1.046       .  S
N1549      H1554   1.045       .  S
N1552      H1555   1.045       .  S
N1552      H1556   1.046       .  S
C1557      C2214   1.405       .  A
C1557      C1562   1.400       .  A
C1557      H1564   1.084       .  S
C1558      C1559   1.417       .  A
C1559      C1560   1.399       .  A
C1559      N1566   1.440       .  S
C1560      C1561   1.402       .  A
C1560      H1565   1.082       .  S
C1562      C2217   1.412       .  A
C1562      N1563   1.432       .  S
N1563      H1567   1.044       .  S
N1563      H1568   1.045       .  S
N1566      H1569   1.046       .  S
N1566      H2226   1.042       .  S
C1571      C1572   1.405       .  A
C1571      C1576   1.411       .  A
C1572      C1573   1.412       .  A
C1573      C1574   1.400       .  A
C1573      N1580   1.438       .  S
C1574      C1575   1.405       .  A
C1574      H1579   1.083       .  S
C1575      C1576   1.415       .  A
N1577      C2232   1.437       .  S
N1577      H1581   1.046       .  S
N1577      H1582   1.045       .  S
H1578      C2227   1.084       .  S
N1580      H1583   1.043       .  S
N1580      H2240   1.046       .  S
C1585      C1918   1.405       .  A
C1585      H1920   1.084       .  S
C1586      C2241   1.403   1_545  A
C1586      C1587   1.412       .  A
C1587      C1588   1.401       .  A
C1587      N1594   1.432       .  S
C1588      C1589   1.397       .  A
C1588      H1593   1.085       .  S
C1589      C2146   1.471       .  S
C1589      C2574   1.419   1_545  A
C1590      C1913   1.406       .  A
C1590      N1591   1.438       .  S
N1591      H1595   1.045       .  S
N1591      H1596   1.043       .  S
H1592      C1913   1.084       .  S
N1594      H1597   1.044       .  S
N1594      H1598   1.046       .  S
C1599      C1604   1.410       .  A
C1599      H1606   1.084       .  S
C1600      C2255   1.408       .  A
C1600      C1601   1.412       .  A
C1601      C1602   1.400       .  A
C1601      N1608   1.437       .  S
C1602      C1603   1.403       .  A
C1602      H1607   1.084       .  S
C1603      C2260   1.412       .  A
C1604      N1605   1.437       .  S
N1605      H1609   1.046       .  S
N1605      H1610   1.045       .  S
N1608      H1611   1.045       .  S
N1608      H1612   1.046       .  S
C1613      C2270   1.402       .  A
C1613      C1618   1.403       .  A
C1613      H1620   1.081       .  S
C1614      C1615   1.409       .  A
C1615      C1616   1.407       .  A
C1615      N1622   1.438       .  S
C1616      C1617   1.404       .  A
C1616      H1621   1.079       .  S
C1618      C2273   1.413       .  A
C1618      N1619   1.438       .  S
N1619      H1623   1.046       .  S
N1619      H1624   1.044       .  S
N1622      H1625   1.045       .  S
N1622      H2282   1.046       .  S
C1627      C1628   1.398       .  A
C1627      C1632   1.400       .  A
C1627      H1634   1.084       .  S
C1628      C2285   1.410   1_556  A
C1629      C1630   1.411       .  A
C1630      H1635   1.083       .  S
C1631      C2286   1.408   1_556  A
C1631      C1632   1.417       .  A
C1632      N1633   1.439       .  S
N1633      H1637   1.046       .  S
N1633      H1638   1.044       .  S
N1636      H1639   1.045       .  S
N1636      H1640   1.046       .  S
O1641      V1649   1.897       .  S
O1641      C2307   1.261       .  A
O1642      C1652   1.259       .  A
O1643      V1813   1.901       .  S
O1643      C1653   1.264       .  A
O1644      C2310   1.260       .  A
O1645      V1814   1.896   1_554  S
O1645      C1654   1.260       .  A
O1647      V1650   1.911       .  S
O1648      C1651   1.263   1_556  A
V1649      O1807   1.902   1_554  S
V1649      V2142   2.077   1_564  T
V1650      O1809   1.895       .  S
C1651      C1781   1.476       .  S
C1652      O2303   1.262       .  A
C1652      C1792   1.472       .  S
C1653      O2302   1.263   1_565  A
C1653      C1764   1.483       .  S
C1655      C1795   1.486       .  S
C1655      N1656   1.361       .  A
C1655      N1660   1.351       .  A
N1656      C1657   1.366       .  A
C1657      C1827   1.472       .  S
C1657      N1658   1.363       .  A
N1658      C1659   1.358       .  A
C1659      C1739   1.484       .  S
C1659      N1660   1.352       .  A
C1661      C1778   1.474       .  S
C1661      N1662   1.357       .  A
C1661      N1666   1.355       .  A
N1662      C1663   1.360       .  A
C1663      C1821   1.470   1_554  S
C1663      N1664   1.361       .  A
N1664      C1665   1.360       .  A
C1665      C1725   1.476       .  S
C1665      N1666   1.355       .  A
O1667      V1675   1.906       .  S
O1667      C2333   1.264       .  A
O1668      V1675   1.900       .  S
O1668      C2334   1.262       .  A
O1669      V1675   1.901       .  S
O1669      C2335   1.261       .  A
O1670      V1675   1.900       .  S
O1670      C2336   1.260       .  A
O1671      V1676   1.892       .  S
O1671      C1680   1.260       .  A
O1672      V1676   1.893       .  S
O1672      C1679   1.261       .  A
O1673      V1676   1.900       .  S
O1673      C1678   1.261       .  A
O1674      V1676   1.896       .  S
O1674      C1677   1.261       .  A
V1675      V2332   2.077       .  T
C1677      C1736   1.480       .  S
C1678      C1722   1.469       .  S
C1679      C1711   1.476       .  S
C1680      C1694   1.467       .  S
C1681      C1708   1.487       .  S
C1681      N1682   1.359       .  A
C1681      N1686   1.359       .  A
N1682      C1683   1.360       .  A
C1683      N1684   1.362       .  A
N1684      C1685   1.362       .  A
C1685      C1750   1.488       .  S
C1685      N1686   1.359       .  A
C1687      C1697   1.479       .  S
C1687      N1688   1.358       .  A
C1687      N1692   1.354       .  A
N1688      C1689   1.360       .  A
C1689      N1690   1.361       .  A
N1690      C1691   1.358       .  A
C1691      C1767   1.482       .  S
C1691      N1692   1.355       .  A
C1693      C1694   1.399       .  A
C1693      C1698   1.400       .  A
C1693      H2356   1.084       .  S
C1694      C1695   1.409       .  A
C1695      C1696   1.407       .  A
C1696      C1697   1.406       .  A
C1696      H1701   1.083       .  S
C1697      C1698   1.415       .  A
C1698      N2355   1.439       .  S
N1699      H1703   1.046       .  S
N1699      H1704   1.044       .  S
N1702      C2351   1.438       .  S
N1702      H1705   1.044       .  S
N1702      H1706   1.046       .  S
C1707      C1712   1.399       .  A
C1707      H1714   1.074       .  S
C1708      C2363   1.405       .  A
C1708      C1709   1.413       .  A
C1709      C1710   1.409       .  A
C1709      N1716   1.438       .  S
C1710      C2367   1.404       .  A
C1710      H1715   1.081       .  S
C1711      C1712   1.411       .  A
C1712      N1713   1.439       .  S
N1713      H1717   1.046       .  S
N1713      H1718   1.044       .  S
N1716      H1719   1.045       .  S
N1716      H1720   1.046       .  S
C1721      C2378   1.404       .  A
C1721      C1726   1.399       .  A
C1721      H1728   1.084       .  S
C1722      C1723   1.416       .  A
C1723      C1724   1.399       .  A
C1723      N1730   1.440       .  S
C1724      C1725   1.403       .  A
C1724      H1729   1.083       .  S
C1726      C2381   1.411       .  A
C1726      N1727   1.432       .  S
N1727      H1731   1.045       .  S
N1727      H1732   1.045       .  S
N1730      H1733   1.046       .  S
N1730      H2390   1.042       .  S
C1735      C1736   1.406       .  A
C1735      C1740   1.410       .  A
C1736      C1737   1.411       .  A
C1737      C1738   1.398       .  A
C1737      N1744   1.438       .  S
C1738      C1739   1.405       .  A
C1738      H1743   1.084       .  S
C1739      C1740   1.413       .  A
N1741      C2396   1.437       .  S
N1741      H1745   1.046       .  S
N1741      H1746   1.045       .  S
H1742      C2391   1.084       .  S
N1744      H1747   1.043       .  S
N1744      H2404   1.046       .  S
C1750      C2405   1.407       .  A
C1750      C1751   1.412       .  A
C1751      C1752   1.398       .  A
C1751      N1758   1.428       .  S
C1752      C1753   1.396       .  A
C1752      H1757   1.085       .  S
C1753      C2310   1.468       .  S
C1753      C2082   1.416       .  A
C1754      N1755   1.438       .  S
N1755      H1759   1.045       .  S
N1755      H1760   1.043       .  S
N1758      H1761   1.046       .  S
N1758      H1762   1.046       .  S
C1763      C1768   1.412       .  A
C1763      H1770   1.084       .  S
C1764      C2419   1.406   1_565  A
C1764      C1765   1.411       .  A
C1765      C1766   1.400       .  A
C1765      N1772   1.436       .  S
C1766      C1767   1.404       .  A
C1766      H1771   1.084       .  S
C1767      C2424   1.413   1_565  A
C1768      N1769   1.437       .  S
N1769      H1773   1.046       .  S
N1769      H1774   1.045       .  S
N1772      H1775   1.045       .  S
N1772      H1776   1.046       .  S
C1777      C2434   1.403       .  A
C1777      C1782   1.403       .  A
C1777      H1784   1.082       .  S
C1778      C1779   1.410   1_554  A
C1779      C1780   1.406       .  A
C1779      N1786   1.438       .  S
C1780      C1781   1.404   1_556  A
C1780      H1785   1.080       .  S
C1782      C2437   1.413       .  A
C1782      N1783   1.438       .  S
N1783      H1787   1.046       .  S
N1783      H1788   1.045       .  S
N1786      H1789   1.045       .  S
N1786      H2446   1.046       .  S
C1791      C1792   1.397       .  A
C1791      C1796   1.400       .  A
C1791      H1798   1.084       .  S
C1792      C2449   1.411       .  A
C1793      C1794   1.411       .  A
C1793      N1964   1.437       .  S
C1794      H1799   1.083       .  S
C1795      C2450   1.407       .  A
C1795      C1796   1.418       .  A
C1796      N1797   1.439       .  S
N1797      H1801   1.046       .  S
N1797      H1802   1.044       .  S
N1800      C1957   1.437       .  S
N1800      H1803   1.044       .  S
N1800      H1804   1.046       .  S
O1805      V1813   1.896       .  S
O1805      C2471   1.261       .  A
O1806      C1816   1.260   1_554  A
O1807      C1817   1.264       .  A
O1808      C2474   1.260       .  A
O1809      C1818   1.259       .  A
O1811      V1814   1.908       .  S
O1812      C1815   1.265       .  A
V1813      V1978   2.078   1_565  T
C1815      C1945   1.480       .  S
C1816      O2467   1.262       .  A
C1816      C1956   1.470       .  S
C1817      O2466   1.263   1_565  A
C1817      C1928   1.485       .  S
C1819      C1959   1.484       .  S
C1819      N1820   1.360       .  A
C1819      N1824   1.351       .  A
N1820      C1821   1.364       .  A
C1821      N1822   1.363       .  A
N1822      C1823   1.357       .  A
C1823      C1903   1.484       .  S
C1823      N1824   1.352       .  A
C1825      C1942   1.478       .  S
C1825      N1826   1.360       .  A
C1825      N1830   1.354       .  A
N1826      C1827   1.362       .  A
C1827      N1828   1.361       .  A
N1828      C1829   1.358       .  A
C1829      C1889   1.472       .  S
C1829      N1830   1.355       .  A
O1831      V1839   1.905       .  S
O1831      C2497   1.263       .  A
O1832      V1839   1.898       .  S
O1832      C2498   1.261       .  A
O1833      V1839   1.903       .  S
O1833      C2499   1.262       .  A
O1834      V1839   1.904       .  S
O1834      C2500   1.261       .  A
O1835      V1840   1.890       .  S
O1835      C1844   1.259       .  A
O1836      V1840   1.892       .  S
O1836      C1843   1.261       .  A
O1837      V1840   1.898       .  S
O1837      C1842   1.261       .  A
O1838      V1840   1.895       .  S
O1838      C1841   1.261       .  A
V1839      V2496   2.077       .  T
C1841      C1900   1.479       .  S
C1842      C1886   1.468       .  S
C1843      C1875   1.476       .  S
C1844      C1858   1.467       .  S
C1845      C1872   1.482       .  S
C1845      N1846   1.358       .  A
C1845      N1850   1.359       .  A
N1846      C1847   1.359       .  A
C1847      N1848   1.361       .  A
N1848      C1849   1.360       .  A
C1849      C1914   1.483       .  S
C1849      N1850   1.358       .  A
C1851      C1861   1.480       .  S
C1851      N1852   1.358       .  A
C1851      N1856   1.354       .  A
N1852      C1853   1.361       .  A
C1853      N1854   1.364       .  A
N1854      C1855   1.360       .  A
C1855      C1931   1.487       .  S
C1855      N1856   1.355       .  A
C1857      C1858   1.398       .  A
C1857      C1862   1.400       .  A
C1857      H2520   1.084       .  S
C1858      C1859   1.409       .  A
C1859      C1860   1.408       .  A
C1860      C1861   1.407       .  A
C1860      H1865   1.083       .  S
C1861      C1862   1.415       .  A
C1862      N2519   1.439       .  S
N1863      H1867   1.046       .  S
N1863      H1868   1.044       .  S
N1866      C2515   1.438       .  S
N1866      H1869   1.043       .  S
N1866      H1870   1.046       .  S
C1871      C1876   1.399       .  A
C1871      H1878   1.076       .  S
C1872      C2527   1.403       .  A
C1872      C1873   1.412       .  A
C1873      C1874   1.408       .  A
C1873      N1880   1.438       .  S
C1874      C2531   1.404       .  A
C1874      H1879   1.081       .  S
C1875      C1876   1.411       .  A
C1876      N1877   1.439       .  S
N1877      H1881   1.046       .  S
N1877      H1882   1.043       .  S
N1880      H1883   1.045       .  S
N1880      H1884   1.046       .  S
C1885      C2542   1.404       .  A
C1885      C1890   1.399       .  A
C1885      H1892   1.084       .  S
C1886      C1887   1.416       .  A
C1887      C1888   1.398       .  A
C1887      N1894   1.440       .  S
C1888      C1889   1.402       .  A
C1888      H1893   1.083       .  S
C1890      C2545   1.412       .  A
C1890      N1891   1.432       .  S
N1891      H1895   1.045       .  S
N1891      H1896   1.045       .  S
N1894      H1897   1.046       .  S
N1894      H2554   1.042       .  S
C1899      C1900   1.406       .  A
C1899      C1904   1.410       .  A
C1900      C1901   1.411       .  A
C1901      C1902   1.397       .  A
C1901      N1908   1.438       .  S
C1902      C1903   1.404       .  A
C1902      H1907   1.084       .  S
C1903      C1904   1.413       .  A
N1905      C2560   1.437       .  S
N1905      H1909   1.046       .  S
N1905      H1910   1.045       .  S
H1906      C2555   1.084       .  S
N1908      H1911   1.043       .  S
N1908      H2568   1.046       .  S
C1914      C2569   1.406       .  A
C1914      C1915   1.410       .  A
C1915      C1916   1.397       .  A
C1915      N1922   1.428       .  S
C1916      C1917   1.397       .  A
C1916      H1921   1.085       .  S
C1917      C2474   1.469       .  S
C1917      C2246   1.417       .  A
C1918      N1919   1.438       .  S
N1919      H1923   1.046       .  S
N1919      H1924   1.043       .  S
N1922      H1925   1.046       .  S
N1922      H1926   1.046       .  S
C1927      C1932   1.411       .  A
C1927      H1934   1.084       .  S
C1928      C2583   1.407   1_565  A
C1928      C1929   1.411       .  A
C1929      C1930   1.401       .  A
C1929      N1936   1.437       .  S
C1930      C1931   1.405       .  A
C1930      H1935   1.084       .  S
C1931      C2588   1.414   1_565  A
C1932      N1933   1.437       .  S
N1933      H1937   1.046       .  S
N1933      H1938   1.045       .  S
N1936      H1939   1.045       .  S
N1936      H1940   1.046       .  S
C1941      C2598   1.403       .  A
C1941      C1946   1.402       .  A
C1941      H1948   1.082       .  S
C1942      C1943   1.410       .  A
C1943      C1944   1.407       .  A
C1943      N1950   1.438       .  S
C1944      C1945   1.404       .  A
C1944      H1949   1.079       .  S
C1946      C2601   1.412       .  A
C1946      N1947   1.439       .  S
N1947      H1951   1.046       .  S
N1947      H1952   1.044       .  S
N1950      H1953   1.045       .  S
N1950      H2610   1.046       .  S
C1955      C1956   1.397       .  A
C1955      C1960   1.399       .  A
C1955      H1962   1.084       .  S
C1956      C2613   1.410   1_556  A
C1957      C1958   1.409       .  A
C1958      H1963   1.083       .  S
C1959      C2614   1.407   1_556  A
C1959      C1960   1.418       .  A
C1960      N1961   1.439       .  S
N1961      H1965   1.046       .  S
N1961      H1966   1.044       .  S
N1964      H1967   1.044       .  S
N1964      H1968   1.046       .  S
O1969      V1977   1.897       .  S
O1969      C2635   1.261       .  A
O1970      V2469   1.891   1_545  S
O1970      C1980   1.259       .  A
O1971      V2141   1.900       .  S
O1971      C1981   1.264       .  A
O1972      V2305   1.898       .  S
O1972      C2638   1.260   1_565  A
O1973      V2142   1.897   1_554  S
O1973      C1982   1.260       .  A
O1974      V2306   1.908       .  S
O1975      V1978   1.908       .  S
O1976      V2470   1.906       .  S
O1976      C1979   1.264   1_556  A
V1977      O2462   1.891       .  S
V1977      O2135   1.904   1_554  S
V1977      O2300   1.906       .  S
V1977      V3126   2.076   1_554  T
V1978      O2137   1.895       .  S
V1978      O2302   1.902       .  S
V1978      O2468   1.904   1_545  S
C1979      C2109   1.479       .  S
C1980      O2631   1.263       .  A
C1980      C2120   1.470       .  S
C1981      O2630   1.263       .  A
C1981      C2092   1.484       .  S
C1983      C2123   1.485       .  S
C1983      N1984   1.360       .  A
C1983      N1988   1.352       .  A
N1984      C1985   1.364       .  A
C1985      C2155   1.472       .  S
C1985      N1986   1.363       .  A
N1986      C1987   1.359       .  A
C1987      C2067   1.485       .  S
C1987      N1988   1.353       .  A
C1989      C2106   1.477       .  S
C1989      N1990   1.359       .  A
C1989      N1994   1.355       .  A
N1990      C1991   1.362       .  A
C1991      C2149   1.471   1_554  S
C1991      N1992   1.360       .  A
N1992      C1993   1.359       .  A
C1993      C2053   1.474       .  S
C1993      N1994   1.355       .  A
O1995      V2003   1.906       .  S
O1995      C2661   1.264       .  A
O1996      V2003   1.899       .  S
O1996      C2662   1.262       .  A
O1997      V2003   1.903       .  S
O1997      C2663   1.262       .  A
O1998      V2003   1.903       .  S
O1998      C2664   1.261       .  A
O1999      V2004   1.890       .  S
O1999      C2008   1.259       .  A
O2000      V2004   1.891       .  S
O2000      C2007   1.260       .  A
O2001      V2004   1.899       .  S
O2001      C2006   1.261       .  A
O2002      V2004   1.895       .  S
O2002      C2005   1.262       .  A
V2003      V2660   2.078       .  T
C2005      C2064   1.482       .  S
C2006      C2050   1.469       .  S
C2007      C2039   1.478       .  S
C2008      C2022   1.468       .  S
C2009      C2036   1.484       .  S
C2009      N2010   1.360       .  A
C2009      N2014   1.358       .  A
N2010      C2011   1.361       .  A
C2011      C2345   1.474   1_545  S
C2011      N2012   1.361       .  A
N2012      C2013   1.360       .  A
C2013      C2078   1.484       .  S
C2013      N2014   1.357       .  A
C2015      C2025   1.481       .  S
C2015      N2016   1.358       .  A
C2015      N2020   1.354       .  A
N2016      C2017   1.361       .  A
C2017      C2339   1.468       .  S
C2017      N2018   1.362       .  A
N2018      C2019   1.358       .  A
C2019      C2095   1.483       .  S
C2019      N2020   1.355       .  A
C2021      C2022   1.398       .  A
C2021      C2026   1.399       .  A
C2021      H2684   1.084       .  S
C2022      C2023   1.409       .  A
C2023      C2024   1.409       .  A
C2024      C2025   1.407       .  A
C2024      H2029   1.083       .  S
C2025      C2026   1.415       .  A
C2026      N2683   1.439       .  S
N2027      H2031   1.046       .  S
N2027      H2032   1.044       .  S
N2030      C2679   1.438       .  S
N2030      H2033   1.044       .  S
N2030      H2034   1.046       .  S
C2035      C2040   1.399       .  A
C2035      H2042   1.075       .  S
C2036      C2691   1.404       .  A
C2036      C2037   1.412       .  A
C2037      C2038   1.410       .  A
C2037      N2044   1.438       .  S
C2038      C2695   1.405       .  A
C2038      H2043   1.079       .  S
C2039      C2040   1.412       .  A
C2040      N2041   1.439       .  S
N2041      H2045   1.046       .  S
N2041      H2046   1.043       .  S
N2044      H2047   1.045       .  S
N2044      H2048   1.046       .  S
C2049      C2706   1.404       .  A
C2049      C2054   1.400       .  A
C2049      H2056   1.084       .  S
C2050      C2051   1.416       .  A
C2051      C2052   1.399       .  A
C2051      N2058   1.440       .  S
C2052      C2053   1.402       .  A
C2052      H2057   1.082       .  S
C2054      C2709   1.411       .  A
C2054      N2055   1.432       .  S
N2055      H2059   1.045       .  S
N2055      H2060   1.045       .  S
N2058      H2061   1.046       .  S
N2058      H2718   1.042       .  S
C2063      C2064   1.407       .  A
C2063      C2068   1.412       .  A
C2064      C2065   1.411       .  A
C2065      C2066   1.398       .  A
C2065      N2072   1.437       .  S
C2066      C2067   1.404       .  A
C2066      H2071   1.084       .  S
C2067      C2068   1.414       .  A
N2069      C2724   1.437       .  S
N2069      H2073   1.046       .  S
N2069      H2074   1.045       .  S
H2070      C2719   1.084       .  S
N2072      H2075   1.043       .  S
N2072      H2732   1.046       .  S
C2077      C2410   1.406       .  A
C2077      H2412   1.084       .  S
C2078      C2733   1.407   1_545  A
C2078      C2079   1.411       .  A
C2079      C2080   1.397       .  A
C2079      N2086   1.428       .  S
C2080      C2081   1.396       .  A
C2080      H2085   1.085       .  S
C2081      C2638   1.468       .  S
C2081      C3066   1.417   1_545  A
C2082      C2405   1.407       .  A
C2082      N2083   1.438       .  S
N2083      H2087   1.046       .  S
N2083      H2088   1.043       .  S
H2084      C2405   1.084       .  S
N2086      H2089   1.046       .  S
N2086      H2090   1.046       .  S
C2091      C2096   1.412       .  A
C2091      H2098   1.084       .  S
C2092      C2747   1.406       .  A
C2092      C2093   1.412       .  A
C2093      C2094   1.400       .  A
C2093      N2100   1.437       .  S
C2094      C2095   1.404       .  A
C2094      H2099   1.084       .  S
C2095      C2752   1.413       .  A
C2096      N2097   1.437       .  S
N2097      H2101   1.046       .  S
N2097      H2102   1.045       .  S
N2100      H2103   1.045       .  S
N2100      H2104   1.046       .  S
C2105      C2762   1.403       .  A
C2105      C2110   1.403       .  A
C2105      H2112   1.081       .  S
C2106      C2107   1.409   1_554  A
C2107      C2108   1.407       .  A
C2107      N2114   1.438       .  S
C2108      C2109   1.404   1_556  A
C2108      H2113   1.078       .  S
C2110      C2765   1.413       .  A
C2110      N2111   1.439       .  S
N2111      H2115   1.046       .  S
N2111      H2116   1.044       .  S
N2114      H2117   1.045       .  S
N2114      H2774   1.046       .  S
C2119      C2120   1.398       .  A
C2119      C2124   1.400       .  A
C2119      H2126   1.084       .  S
C2120      C2777   1.409       .  A
C2121      C2122   1.410       .  A
C2121      N2292   1.437       .  S
C2122      H2127   1.083       .  S
C2123      C2778   1.407       .  A
C2123      C2124   1.418       .  A
C2124      N2125   1.439       .  S
N2125      H2129   1.046       .  S
N2125      H2130   1.044       .  S
N2128      C2285   1.438       .  S
N2128      H2131   1.044       .  S
N2128      H2132   1.046       .  S
O2133      V2141   1.894       .  S
O2133      C2799   1.261       .  A
O2134      V2305   1.892   1_545  S
O2134      C2144   1.260   1_554  A
O2135      C2145   1.264       .  A
O2136      V2469   1.901       .  S
O2136      C2802   1.261   1_565  A
O2137      C2146   1.260       .  A
O2138      V2470   1.906       .  S
O2139      V2142   1.909       .  S
O2140      V2306   1.907       .  S
O2140      C2143   1.265       .  A
V2141      O2298   1.891       .  S
V2141      O2464   1.903       .  S
V2141      V2962   2.077       .  T
V2142      O2466   1.905       .  S
V2142      O2304   1.904   1_545  S
C2143      C2273   1.478       .  S
C2144      O2795   1.262       .  A
C2144      C2284   1.472       .  S
C2145      O2794   1.263       .  A
C2145      C2256   1.487       .  S
C2147      C2287   1.486       .  S
C2147      N2148   1.361       .  A
C2147      N2152   1.353       .  A
N2148      C2149   1.364       .  A
C2149      N2150   1.361       .  A
N2150      C2151   1.357       .  A
C2151      C2231   1.482       .  S
C2151      N2152   1.353       .  A
C2153      C2270   1.476       .  S
C2153      N2154   1.358       .  A
C2153      N2158   1.354       .  A
N2154      C2155   1.361       .  A
C2155      N2156   1.362       .  A
N2156      C2157   1.360       .  A
C2157      C2217   1.475       .  S
C2157      N2158   1.355       .  A
O2159      V2167   1.907       .  S
O2159      C2825   1.264       .  A
O2160      V2167   1.900       .  S
O2160      C2826   1.262       .  A
O2161      V2167   1.902       .  S
O2161      C2827   1.262       .  A
O2162      V2167   1.901       .  S
O2162      C2828   1.260       .  A
O2163      V2168   1.894       .  S
O2163      C2172   1.260       .  A
O2164      V2168   1.894       .  S
O2164      C2171   1.261       .  A
O2165      V2168   1.899       .  S
O2165      C2170   1.261       .  A
O2166      V2168   1.895       .  S
O2166      C2169   1.261       .  A
V2167      V2824   2.076       .  T
C2169      C2228   1.481       .  S
C2170      C2214   1.470       .  S
C2171      C2203   1.479       .  S
C2172      C2186   1.470       .  S
C2173      C2200   1.485       .  S
C2173      N2174   1.360       .  A
C2173      N2178   1.358       .  A
N2174      C2175   1.361       .  A
C2175      C2509   1.477   1_545  S
C2175      N2176   1.362       .  A
N2176      C2177   1.362       .  A
C2177      C2242   1.489       .  S
C2177      N2178   1.358       .  A
C2179      C2189   1.483       .  S
C2179      N2180   1.358       .  A
C2179      N2184   1.355       .  A
N2180      C2181   1.361       .  A
C2181      C2503   1.471       .  S
C2181      N2182   1.363       .  A
N2182      C2183   1.359       .  A
C2183      C2259   1.486       .  S
C2183      N2184   1.356       .  A
C2185      C2186   1.399       .  A
C2185      C2190   1.402       .  A
C2185      H2848   1.084       .  S
C2186      C2187   1.409       .  A
C2187      C2188   1.409       .  A
C2188      C2189   1.407       .  A
C2188      H2193   1.083       .  S
C2189      C2190   1.415       .  A
C2190      N2847   1.438       .  S
N2191      H2195   1.046       .  S
N2191      H2196   1.044       .  S
N2194      C2843   1.438       .  S
N2194      H2197   1.044       .  S
N2194      H2198   1.046       .  S
C2199      C2204   1.400       .  A
C2199      H2206   1.075       .  S
C2200      C2855   1.404       .  A
C2200      C2201   1.412       .  A
C2201      C2202   1.409       .  A
C2201      N2208   1.437       .  S
C2202      C2859   1.405       .  A
C2202      H2207   1.080       .  S
C2203      C2204   1.412       .  A
C2204      N2205   1.439       .  S
N2205      H2209   1.046       .  S
N2205      H2210   1.043       .  S
N2208      H2211   1.045       .  S
N2208      H2212   1.046       .  S
C2213      C2870   1.404       .  A
C2213      C2218   1.400       .  A
C2213      H2220   1.084       .  S
C2214      C2215   1.416       .  A
C2215      C2216   1.399       .  A
C2215      N2222   1.440       .  S
C2216      C2217   1.403       .  A
C2216      H2221   1.083       .  S
C2218      C2873   1.412       .  A
C2218      N2219   1.432       .  S
N2219      H2223   1.045       .  S
N2219      H2224   1.045       .  S
N2222      H2225   1.046       .  S
N2222      H2882   1.042       .  S
C2227      C2228   1.406       .  A
C2227      C2232   1.410       .  A
C2228      C2229   1.413       .  A
C2229      C2230   1.399       .  A
C2229      N2236   1.437       .  S
C2230      C2231   1.403       .  A
C2230      H2235   1.084       .  S
C2231      C2232   1.413       .  A
N2233      C2888   1.437       .  S
N2233      H2237   1.046       .  S
N2233      H2238   1.045       .  S
H2234      C2883   1.084       .  S
N2236      H2239   1.042       .  S
N2236      H2896   1.046       .  S
C2241      C2574   1.406       .  A
C2241      H2576   1.084       .  S
C2242      C2897   1.408   1_545  A
C2242      C2243   1.414       .  A
C2243      C2244   1.398       .  A
C2243      N2250   1.429       .  S
C2244      C2245   1.395       .  A
C2244      H2249   1.085       .  S
C2245      C2802   1.468       .  S
C2245      C3230   1.416   1_545  A
C2246      C2569   1.406       .  A
C2246      N2247   1.439       .  S
N2247      H2251   1.045       .  S
N2247      H2252   1.043       .  S
H2248      C2569   1.084       .  S
N2250      H2253   1.046       .  S
N2250      H2254   1.046       .  S
C2255      C2260   1.411       .  A
C2255      H2262   1.084       .  S
C2256      C2911   1.407       .  A
C2256      C2257   1.412       .  A
C2257      C2258   1.401       .  A
C2257      N2264   1.435       .  S
C2258      C2259   1.403       .  A
C2258      H2263   1.084       .  S
C2259      C2916   1.414       .  A
C2260      N2261   1.438       .  S
N2261      H2265   1.046       .  S
N2261      H2266   1.045       .  S
N2264      H2267   1.045       .  S
N2264      H2268   1.046       .  S
C2269      C2926   1.402       .  A
C2269      C2274   1.402       .  A
C2269      H2276   1.083       .  S
C2270      C2271   1.409       .  A
C2271      C2272   1.406       .  A
C2271      N2278   1.438       .  S
C2272      C2273   1.404       .  A
C2272      H2277   1.080       .  S
C2274      C2929   1.413       .  A
C2274      N2275   1.439       .  S
N2275      H2279   1.046       .  S
N2275      H2280   1.044       .  S
N2278      H2281   1.045       .  S
N2278      H2938   1.046       .  S
C2283      C2284   1.398       .  A
C2283      C2288   1.400       .  A
C2283      H2290   1.084       .  S
C2284      C2941   1.410   1_556  A
C2285      C2286   1.412       .  A
C2286      H2291   1.083       .  S
C2287      C2942   1.407   1_556  A
C2287      C2288   1.418       .  A
C2288      N2289   1.439       .  S
N2289      H2293   1.046       .  S
N2289      H2294   1.044       .  S
N2292      H2295   1.043       .  S
N2292      H2296   1.046       .  S
O2297      V2305   1.896       .  S
O2297      C2963   1.261       .  A
O2298      C2308   1.259       .  A
O2299      V2469   1.899       .  S
O2299      C2309   1.263       .  A
O2300      C2966   1.262       .  A
O2301      V2470   1.900   1_554  S
O2301      C2310   1.260       .  A
O2303      V2306   1.910       .  S
O2304      C2307   1.264   1_556  A
V2305      O2463   1.899   1_554  S
V2305      V2798   2.078   1_564  T
V2306      O2465   1.901       .  S
C2307      C2437   1.478       .  S
C2308      O2959   1.263       .  A
C2308      C2448   1.473       .  S
C2309      O2958   1.264   1_565  A
C2309      C2420   1.485       .  S
C2311      C2451   1.485       .  S
C2311      N2312   1.360       .  A
C2311      N2316   1.352       .  A
N2312      C2313   1.364       .  A
C2313      C2483   1.471       .  S
C2313      N2314   1.363       .  A
N2314      C2315   1.359       .  A
C2315      C2395   1.485       .  S
C2315      N2316   1.353       .  A
C2317      C2434   1.475       .  S
C2317      N2318   1.358       .  A
C2317      N2322   1.355       .  A
N2318      C2319   1.360       .  A
C2319      C2477   1.470   1_554  S
C2319      N2320   1.361       .  A
N2320      C2321   1.358       .  A
C2321      C2381   1.473       .  S
C2321      N2322   1.355       .  A
O2323      V2331   1.905       .  S
O2323      C2989   1.264       .  A
O2324      V2331   1.898       .  S
O2324      C2990   1.261       .  A
O2325      V2331   1.904       .  S
O2325      C2991   1.263       .  A
O2326      V2331   1.902       .  S
O2326      C2992   1.261       .  A
O2327      V2332   1.902       .  S
O2327      C2336   1.263       .  A
O2328      V2332   1.904       .  S
O2328      C2335   1.263       .  A
O2329      V2332   1.896       .  S
O2329      C2334   1.260       .  A
O2330      V2332   1.895       .  S
O2330      C2333   1.262       .  A
V2331      V2988   2.078       .  T
C2333      C2392   1.481       .  S
C2334      C2378   1.470       .  S
C2335      C2367   1.476       .  S
C2336      C2350   1.473       .  S
C2337      C2364   1.477       .  S
C2337      N2338   1.357       .  A
C2337      N2342   1.358       .  A
N2338      C2339   1.359       .  A
C2339      N2340   1.361       .  A
N2340      C2341   1.358       .  A
C2341      C2406   1.481       .  S
C2341      N2342   1.358       .  A
C2343      C2353   1.486       .  S
C2343      N2344   1.361       .  A
C2343      N2348   1.353       .  A
N2344      C2345   1.364       .  A
C2345      N2346   1.363       .  A
N2346      C2347   1.359       .  A
C2347      C2423   1.481       .  S
C2347      N2348   1.354       .  A
C2349      C2350   1.398       .  A
C2349      C2354   1.403       .  A
C2349      H3012   1.084       .  S
C2350      C2351   1.411       .  A
C2351      C2352   1.409       .  A
C2352      C2353   1.406       .  A
C2352      H2357   1.083       .  S
C2353      C2354   1.418       .  A
C2354      N3011   1.439       .  S
N2355      H2359   1.046       .  S
N2355      H2360   1.044       .  S
N2358      C3007   1.438       .  S
N2358      H2361   1.044       .  S
N2358      H2362   1.046       .  S
C2363      C2368   1.403       .  A
C2363      H2370   1.077       .  S
C2364      C3019   1.398       .  A
C2364      C2365   1.410       .  A
C2365      C2366   1.409       .  A
C2365      N2372   1.437       .  S
C2366      C3023   1.406       .  A
C2366      H2371   1.082       .  S
C2367      C2368   1.408       .  A
C2368      N2369   1.439       .  S
N2369      H2373   1.046       .  S
N2369      H2374   1.045       .  S
N2372      H2375   1.045       .  S
N2372      H2376   1.046       .  S
C2377      C3034   1.404       .  A
C2377      C2382   1.401       .  A
C2377      H2384   1.084       .  S
C2378      C2379   1.418       .  A
C2379      C2380   1.399       .  A
C2379      N2386   1.441       .  S
C2380      C2381   1.402       .  A
C2380      H2385   1.082       .  S
C2382      C3037   1.413       .  A
C2382      N2383   1.433       .  S
N2383      H2387   1.045       .  S
N2383      H2388   1.045       .  S
N2386      H2389   1.046       .  S
N2386      H3046   1.041       .  S
C2391      C2392   1.407       .  A
C2391      C2396   1.411       .  A
C2392      C2393   1.411       .  A
C2393      C2394   1.398       .  A
C2393      N2400   1.438       .  S
C2394      C2395   1.405       .  A
C2394      H2399   1.084       .  S
C2395      C2396   1.414       .  A
N2397      C3052   1.437       .  S
N2397      H2401   1.046       .  S
N2397      H2402   1.045       .  S
H2398      C3047   1.084       .  S
N2400      H2403   1.043       .  S
N2400      H3060   1.046       .  S
C2406      C3061   1.403       .  A
C2406      C2407   1.411       .  A
C2407      C2408   1.402       .  A
C2407      N2414   1.433       .  S
C2408      C2409   1.398       .  A
C2408      H2413   1.084       .  S
C2409      C2966   1.471       .  S
C2409      C2738   1.418       .  A
C2410      N2411   1.438       .  S
N2411      H2415   1.045       .  S
N2411      H2416   1.043       .  S
N2414      H2417   1.044       .  S
N2414      H2418   1.046       .  S
C2419      C2424   1.409       .  A
C2419      H2426   1.084       .  S
C2420      C3075   1.407   1_565  A
C2420      C2421   1.411       .  A
C2421      C2422   1.399       .  A
C2421      N2428   1.436       .  S
C2422      C2423   1.402       .  A
C2422      H2427   1.084       .  S
C2423      C3080   1.413   1_565  A
C2424      N2425   1.437       .  S
N2425      H2429   1.046       .  S
N2425      H2430   1.045       .  S
N2428      H2431   1.045       .  S
N2428      H2432   1.046       .  S
C2433      C3090   1.402       .  A
C2433      C2438   1.402       .  A
C2433      H2440   1.082       .  S
C2434      C2435   1.409   1_554  A
C2435      C2436   1.406       .  A
C2435      N2442   1.438       .  S
C2436      C2437   1.404   1_556  A
C2436      H2441   1.080       .  S
C2438      C3093   1.412       .  A
C2438      N2439   1.438       .  S
N2439      H2443   1.046       .  S
N2439      H2444   1.044       .  S
N2442      H2445   1.045       .  S
N2442      H3102   1.046       .  S
C2447      C2448   1.398       .  A
C2447      C2452   1.400       .  A
C2447      H2454   1.084       .  S
C2448      C3105   1.410       .  A
C2449      C2450   1.412       .  A
C2449      N2620   1.437       .  S
C2450      H2455   1.083       .  S
C2451      C3106   1.407       .  A
C2451      C2452   1.418       .  A
C2452      N2453   1.439       .  S
N2453      H2457   1.046       .  S
N2453      H2458   1.044       .  S
N2456      C2613   1.437       .  S
N2456      H2459   1.044       .  S
N2456      H2460   1.046       .  S
O2461      V2469   1.896       .  S
O2461      C3127   1.261       .  A
O2462      C2472   1.259       .  A
O2463      C2473   1.264       .  A
O2464      C3130   1.262       .  A
O2465      C2474   1.261       .  A
O2467      V2470   1.909       .  S
O2468      C2471   1.263       .  A
V2469      V2634   2.077   1_565  T
C2471      C2601   1.477       .  S
C2472      O3123   1.262   1_554  A
C2472      C2612   1.469   1_554  S
C2473      O3122   1.264   1_565  A
C2473      C2584   1.487       .  S
C2475      C2615   1.483       .  S
C2475      N2476   1.359       .  A
C2475      N2480   1.352       .  A
N2476      C2477   1.362       .  A
C2477      N2478   1.363       .  A
N2478      C2479   1.359       .  A
C2479      C2559   1.486       .  S
C2479      N2480   1.353       .  A
C2481      C2598   1.475       .  S
C2481      N2482   1.359       .  A
C2481      N2486   1.354       .  A
N2482      C2483   1.361       .  A
C2483      N2484   1.361       .  A
N2484      C2485   1.359       .  A
C2485      C2545   1.473       .  S
C2485      N2486   1.354       .  A
O2487      V2495   1.906       .  S
O2487      C3153   1.264       .  A
O2488      V2495   1.897       .  S
O2488      C3154   1.261       .  A
O2489      V2495   1.904       .  S
O2489      C3155   1.263       .  A
O2490      V2495   1.903       .  S
O2490      C3156   1.261       .  A
O2491      V2496   1.897       .  S
O2491      C2500   1.261       .  A
O2492      V2496   1.898       .  S
O2492      C2499   1.261       .  A
O2493      V2496   1.896       .  S
O2493      C2498   1.260       .  A
O2494      V2496   1.894       .  S
O2494      C2497   1.261       .  A
V2495      V3152   2.078       .  T
C2497      C2556   1.478       .  S
C2498      C2542   1.468       .  S
C2499      C2531   1.475       .  S
C2500      C2514   1.473       .  S
C2501      C2528   1.476       .  S
C2501      N2502   1.357       .  A
C2501      N2506   1.356       .  A
N2502      C2503   1.360       .  A
C2503      N2504   1.363       .  A
N2504      C2505   1.360       .  A
C2505      C2570   1.482       .  S
C2505      N2506   1.357       .  A
C2507      C2517   1.486       .  S
C2507      N2508   1.361       .  A
C2507      N2512   1.353       .  A
N2508      C2509   1.364       .  A
C2509      N2510   1.364       .  A
N2510      C2511   1.360       .  A
C2511      C2587   1.483       .  S
C2511      N2512   1.354       .  A
C2513      C2514   1.398       .  A
C2513      C2518   1.402       .  A
C2513      H3176   1.084       .  S
C2514      C2515   1.411       .  A
C2515      C2516   1.410       .  A
C2516      C2517   1.406       .  A
C2516      H2521   1.083       .  S
C2517      C2518   1.418       .  A
C2518      N3175   1.439       .  S
N2519      H2523   1.046       .  S
N2519      H2524   1.044       .  S
N2522      C3171   1.438       .  S
N2522      H2525   1.044       .  S
N2522      H2526   1.046       .  S
C2527      C2532   1.401       .  A
C2527      H2534   1.077       .  S
C2528      C3183   1.398       .  A
C2528      C2529   1.410       .  A
C2529      C2530   1.409       .  A
C2529      N2536   1.437       .  S
C2530      C3187   1.406       .  A
C2530      H2535   1.082       .  S
C2531      C2532   1.409       .  A
C2532      N2533   1.439       .  S
N2533      H2537   1.046       .  S
N2533      H2538   1.045       .  S
N2536      H2539   1.045       .  S
N2536      H2540   1.046       .  S
C2541      C3198   1.404       .  A
C2541      C2546   1.399       .  A
C2541      H2548   1.084       .  S
C2542      C2543   1.416       .  A
C2543      C2544   1.398       .  A
C2543      N2550   1.440       .  S
C2544      C2545   1.402       .  A
C2544      H2549   1.082       .  S
C2546      C3201   1.411       .  A
C2546      N2547   1.432       .  S
N2547      H2551   1.045       .  S
N2547      H2552   1.045       .  S
N2550      H2553   1.046       .  S
N2550      H3210   1.042       .  S
C2555      C2556   1.405       .  A
C2555      C2560   1.410       .  A
C2556      C2557   1.411       .  A
C2557      C2558   1.398       .  A
C2557      N2564   1.438       .  S
C2558      C2559   1.405       .  A
C2558      H2563   1.083       .  S
C2559      C2560   1.414       .  A
N2561      C3216   1.437       .  S
N2561      H2565   1.046       .  S
N2561      H2566   1.044       .  S
H2562      C3211   1.084       .  S
N2564      H2567   1.044       .  S
N2564      H3224   1.046       .  S
C2570      C3225   1.403       .  A
C2570      C2571   1.412       .  A
C2571      C2572   1.401       .  A
C2571      N2578   1.433       .  S
C2572      C2573   1.397       .  A
C2572      H2577   1.085       .  S
C2573      C3130   1.470       .  S
C2573      C2902   1.419       .  A
C2574      N2575   1.439       .  S
N2575      H2579   1.045       .  S
N2575      H2580   1.043       .  S
N2578      H2581   1.043       .  S
N2578      H2582   1.046       .  S
C2583      C2588   1.411       .  A
C2583      H2590   1.084       .  S
C2584      C3239   1.408   1_565  A
C2584      C2585   1.412       .  A
C2585      C2586   1.400       .  A
C2585      N2592   1.437       .  S
C2586      C2587   1.403       .  A
C2586      H2591   1.084       .  S
C2587      C3244   1.412   1_565  A
C2588      N2589   1.437       .  S
N2589      H2593   1.046       .  S
N2589      H2594   1.045       .  S
N2592      H2595   1.045       .  S
N2592      H2596   1.046       .  S
C2597      C3254   1.403       .  A
C2597      C2602   1.403       .  A
C2597      H2604   1.082       .  S
C2598      C2599   1.409       .  A
C2599      C2600   1.406       .  A
C2599      N2606   1.438       .  S
C2600      C2601   1.404       .  A
C2600      H2605   1.079       .  S
C2602      C3257   1.412       .  A
C2602      N2603   1.438       .  S
N2603      H2607   1.046       .  S
N2603      H2608   1.044       .  S
N2606      H2609   1.044       .  S
N2606      H3266   1.046       .  S
C2611      C2612   1.398       .  A
C2611      C2616   1.399       .  A
C2611      H2618   1.084       .  S
C2612      C3269   1.409   1_556  A
C2613      C2614   1.410       .  A
C2614      H2619   1.083       .  S
C2615      C3270   1.407   1_556  A
C2615      C2616   1.417       .  A
C2616      N2617   1.439       .  S
N2617      H2621   1.046       .  S
N2617      H2622   1.044       .  S
N2620      H2623   1.044       .  S
N2620      H2624   1.046       .  S
O2625      V2633   1.895       .  S
O2625      C3291   1.261       .  A
O2626      V3125   1.891   1_545  S
O2626      C2636   1.259       .  A
O2627      V2797   1.898       .  S
O2627      C2637   1.263       .  A
O2628      V2961   1.904       .  S
O2628      C3294   1.262   1_565  A
O2629      V2798   1.900   1_554  S
O2629      C2638   1.260       .  A
O2630      V2962   1.903       .  S
O2631      V2634   1.909       .  S
O2632      V3126   1.904       .  S
O2632      C2635   1.264   1_556  A
V2633      O3118   1.889       .  S
V2633      O2791   1.901   1_554  S
V2633      O2956   1.901       .  S
V2633      V3782   2.077   1_554  T
V2634      O2793   1.900       .  S
V2634      O2958   1.906       .  S
V2634      O3124   1.907   1_545  S
C2635      C2765   1.479       .  S
C2636      O3287   1.263       .  A
C2636      C2776   1.473       .  S
C2637      O3286   1.264       .  A
C2637      C2748   1.484       .  S
C2639      C2779   1.485       .  S
C2639      N2640   1.360       .  A
C2639      N2644   1.353       .  A
N2640      C2641   1.363       .  A
C2641      C2811   1.471       .  S
C2641      N2642   1.362       .  A
N2642      C2643   1.358       .  A
C2643      C2723   1.486       .  S
C2643      N2644   1.354       .  A
C2645      C2762   1.477       .  S
C2645      N2646   1.360       .  A
C2645      N2650   1.355       .  A
N2646      C2647   1.362       .  A
C2647      C2805   1.472   1_554  S
C2647      N2648   1.361       .  A
N2648      C2649   1.358       .  A
C2649      C2709   1.474       .  S
C2649      N2650   1.355       .  A
O2651      V2659   1.908       .  S
O2651      C3317   1.264       .  A
O2652      V2659   1.899       .  S
O2652      C3318   1.261       .  A
O2653      V2659   1.908       .  S
O2653      C3319   1.263       .  A
O2654      V2659   1.906       .  S
O2654      C3320   1.262       .  A
O2655      V2660   1.898       .  S
O2655      C2664   1.262       .  A
O2656      V2660   1.900       .  S
O2656      C2663   1.262       .  A
O2657      V2660   1.897       .  S
O2657      C2662   1.260       .  A
O2658      V2660   1.893       .  S
O2658      C2661   1.261       .  A
V2659      V3316   2.078       .  T
C2661      C2720   1.479       .  S
C2662      C2706   1.469       .  S
C2663      C2695   1.477       .  S
C2664      C2678   1.472       .  S
C2665      C2692   1.481       .  S
C2665      N2666   1.359       .  A
C2665      N2670   1.357       .  A
N2666      C2667   1.362       .  A
C2667      C3001   1.472   1_545  S
C2667      N2668   1.361       .  A
N2668      C2669   1.359       .  A
C2669      C2734   1.481       .  S
C2669      N2670   1.357       .  A
C2671      C2681   1.484       .  S
C2671      N2672   1.360       .  A
C2671      N2676   1.353       .  A
N2672      C2673   1.363       .  A
C2673      C2995   1.473       .  S
C2673      N2674   1.364       .  A
N2674      C2675   1.360       .  A
C2675      C2751   1.485       .  S
C2675      N2676   1.353       .  A
C2677      C2678   1.398       .  A
C2677      C2682   1.401       .  A
C2677      H3340   1.084       .  S
C2678      C2679   1.411       .  A
C2679      C2680   1.409       .  A
C2680      C2681   1.406       .  A
C2680      H2685   1.083       .  S
C2681      C2682   1.417       .  A
C2682      N3339   1.439       .  S
N2683      H2687   1.046       .  S
N2683      H2688   1.044       .  S
N2686      C3335   1.438       .  S
N2686      H2689   1.044       .  S
N2686      H2690   1.046       .  S
C2691      C2696   1.401       .  A
C2691      H2698   1.076       .  S
C2692      C3347   1.400       .  A
C2692      C2693   1.411       .  A
C2693      C2694   1.410       .  A
C2693      N2700   1.437       .  S
C2694      C3351   1.405       .  A
C2694      H2699   1.081       .  S
C2695      C2696   1.408       .  A
C2696      N2697   1.439       .  S
N2697      H2701   1.046       .  S
N2697      H2702   1.045       .  S
N2700      H2703   1.045       .  S
N2700      H2704   1.046       .  S
C2705      C3362   1.404       .  A
C2705      C2710   1.399       .  A
C2705      H2712   1.084       .  S
C2706      C2707   1.416       .  A
C2707      C2708   1.399       .  A
C2707      N2714   1.440       .  S
C2708      C2709   1.402       .  A
C2708      H2713   1.082       .  S
C2710      C3365   1.412       .  A
C2710      N2711   1.432       .  S
N2711      H2715   1.045       .  S
N2711      H2716   1.045       .  S
N2714      H2717   1.046       .  S
N2714      H3374   1.042       .  S
C2719      C2720   1.405       .  A
C2719      C2724   1.411       .  A
C2720      C2721   1.411       .  A
C2721      C2722   1.398       .  A
C2721      N2728   1.438       .  S
C2722      C2723   1.404       .  A
C2722      H2727   1.083       .  S
C2723      C2724   1.415       .  A
N2725      C3380   1.437       .  S
N2725      H2729   1.046       .  S
N2725      H2730   1.045       .  S
H2726      C3375   1.084       .  S
N2728      H2731   1.044       .  S
N2728      H3388   1.046       .  S
C2733      C3066   1.407       .  A
C2733      H3068   1.084       .  S
C2734      C3389   1.403   1_545  A
C2734      C2735   1.411       .  A
C2735      C2736   1.401       .  A
C2735      N2742   1.433       .  S
C2736      C2737   1.397       .  A
C2736      H2741   1.085       .  S
C2737      C3294   1.471       .  S
C2737      C3722   1.418   1_545  A
C2738      C3061   1.405       .  A
C2738      N2739   1.439       .  S
N2739      H2743   1.045       .  S
N2739      H2744   1.043       .  S
H2740      C3061   1.084       .  S
N2742      H2745   1.044       .  S
N2742      H2746   1.046       .  S
C2747      C2752   1.410       .  A
C2747      H2754   1.084       .  S
C2748      C3403   1.407       .  A
C2748      C2749   1.411       .  A
C2749      C2750   1.399       .  A
C2749      N2756   1.437       .  S
C2750      C2751   1.404       .  A
C2750      H2755   1.084       .  S
C2751      C3408   1.413       .  A
C2752      N2753   1.437       .  S
N2753      H2757   1.046       .  S
N2753      H2758   1.045       .  S
N2756      H2759   1.045       .  S
N2756      H2760   1.046       .  S
C2761      C3418   1.402       .  A
C2761      C2766   1.403       .  A
C2761      H2768   1.081       .  S
C2762      C2763   1.409   1_554  A
C2763      C2764   1.407       .  A
C2763      N2770   1.438       .  S
C2764      C2765   1.404   1_556  A
C2764      H2769   1.080       .  S
C2766      C3421   1.413       .  A
C2766      N2767   1.439       .  S
N2767      H2771   1.046       .  S
N2767      H2772   1.044       .  S
N2770      H2773   1.045       .  S
N2770      H3430   1.046       .  S
C2775      C2776   1.399       .  A
C2775      C2780   1.401       .  A
C2775      H2782   1.084       .  S
C2776      C3433   1.409       .  A
C2777      C2778   1.410       .  A
C2777      N2948   1.437       .  S
C2778      H2783   1.083       .  S
C2779      C3434   1.407       .  A
C2779      C2780   1.417       .  A
C2780      N2781   1.439       .  S
N2781      H2785   1.046       .  S
N2781      H2786   1.044       .  S
N2784      C2941   1.437       .  S
N2784      H2787   1.044       .  S
N2784      H2788   1.046       .  S
O2789      V2797   1.895       .  S
O2789      C3455   1.261       .  A
O2790      V2961   1.893   1_545  S
O2790      C2800   1.260   1_554  A
O2791      C2801   1.264       .  A
O2792      V3125   1.905       .  S
O2792      C3458   1.262   1_565  A
O2793      C2802   1.260       .  A
O2794      V3126   1.905       .  S
O2795      V2798   1.909       .  S
O2796      V2962   1.906       .  S
O2796      C2799   1.264       .  A
V2797      O2954   1.890       .  S
V2797      O3120   1.899       .  S
V2797      V3618   2.077       .  T
V2798      O3122   1.907       .  S
V2798      O2960   1.906   1_545  S
C2799      C2929   1.479       .  S
C2800      O3451   1.263       .  A
C2800      C2940   1.474       .  S
C2801      O3450   1.264       .  A
C2801      C2912   1.487       .  S
C2803      C2943   1.485       .  S
C2803      N2804   1.360       .  A
C2803      N2808   1.353       .  A
N2804      C2805   1.363       .  A
C2805      N2806   1.362       .  A
N2806      C2807   1.359       .  A
C2807      C2887   1.488       .  S
C2807      N2808   1.355       .  A
C2809      C2926   1.475       .  S
C2809      N2810   1.358       .  A
C2809      N2814   1.354       .  A
N2810      C2811   1.361       .  A
C2811      N2812   1.361       .  A
N2812      C2813   1.359       .  A
C2813      C2873   1.475       .  S
C2813      N2814   1.354       .  A
O2815      V2823   1.906       .  S
O2815      C3481   1.264       .  A
O2816      V2823   1.898       .  S
O2816      C3482   1.261       .  A
O2817      V2823   1.903       .  S
O2817      C3483   1.262       .  A
O2818      V2823   1.902       .  S
O2818      C3484   1.261       .  A
O2819      V2824   1.898       .  S
O2819      C2828   1.261       .  A
O2820      V2824   1.901       .  S
O2820      C2827   1.263       .  A
O2821      V2824   1.898       .  S
O2821      C2826   1.260       .  A
O2822      V2824   1.895       .  S
O2822      C2825   1.261       .  A
V2823      V3480   2.078       .  T
C2825      C2884   1.481       .  S
C2826      C2870   1.470       .  S
C2827      C2859   1.476       .  S
C2828      C2842   1.470       .  S
C2829      C2856   1.477       .  S
C2829      N2830   1.358       .  A
C2829      N2834   1.357       .  A
N2830      C2831   1.360       .  A
C2831      C3165   1.473   1_545  S
C2831      N2832   1.363       .  A
N2832      C2833   1.360       .  A
C2833      C2898   1.484       .  S
C2833      N2834   1.357       .  A
C2835      C2845   1.483       .  S
C2835      N2836   1.360       .  A
C2835      N2840   1.352       .  A
N2836      C2837   1.363       .  A
C2837      C3159   1.474       .  S
C2837      N2838   1.365       .  A
N2838      C2839   1.360       .  A
C2839      C2915   1.485       .  S
C2839      N2840   1.353       .  A
C2841      C2842   1.398       .  A
C2841      C2846   1.401       .  A
C2841      H3504   1.084       .  S
C2842      C2843   1.410       .  A
C2843      C2844   1.408       .  A
C2844      C2845   1.406       .  A
C2844      H2849   1.083       .  S
C2845      C2846   1.418       .  A
C2846      N3503   1.439       .  S
N2847      H2851   1.046       .  S
N2847      H2852   1.044       .  S
N2850      C3499   1.438       .  S
N2850      H2853   1.043       .  S
N2850      H2854   1.046       .  S
C2855      C2860   1.402       .  A
C2855      H2862   1.075       .  S
C2856      C3511   1.399       .  A
C2856      C2857   1.410       .  A
C2857      C2858   1.408       .  A
C2857      N2864   1.437       .  S
C2858      C3515   1.406       .  A
C2858      H2863   1.081       .  S
C2859      C2860   1.408       .  A
C2860      N2861   1.439       .  S
N2861      H2865   1.046       .  S
N2861      H2866   1.045       .  S
N2864      H2867   1.045       .  S
N2864      H2868   1.046       .  S
C2869      C3526   1.405       .  A
C2869      C2874   1.400       .  A
C2869      H2876   1.084       .  S
C2870      C2871   1.417       .  A
C2871      C2872   1.399       .  A
C2871      N2878   1.440       .  S
C2872      C2873   1.402       .  A
C2872      H2877   1.082       .  S
C2874      C3529   1.412       .  A
C2874      N2875   1.432       .  S
N2875      H2879   1.044       .  S
N2875      H2880   1.045       .  S
N2878      H2881   1.046       .  S
N2878      H3538   1.041       .  S
C2883      C2884   1.405       .  A
C2883      C2888   1.411       .  A
C2884      C2885   1.411       .  A
C2885      C2886   1.399       .  A
C2885      N2892   1.438       .  S
C2886      C2887   1.405       .  A
C2886      H2891   1.083       .  S
C2887      C2888   1.415       .  A
N2889      C3544   1.437       .  S
N2889      H2893   1.046       .  S
N2889      H2894   1.044       .  S
H2890      C3539   1.084       .  S
N2892      H2895   1.043       .  S
N2892      H3552   1.046       .  S
C2897      C3230   1.407       .  A
C2897      H3232   1.084       .  S
C2898      C3553   1.404   1_545  A
C2898      C2899   1.412       .  A
C2899      C2900   1.401       .  A
C2899      N2906   1.432       .  S
C2900      C2901   1.396       .  A
C2900      H2905   1.085       .  S
C2901      C3458   1.469       .  S
C2901      C3886   1.418   1_545  A
C2902      C3225   1.406       .  A
C2902      N2903   1.438       .  S
N2903      H2907   1.045       .  S
N2903      H2908   1.043       .  S
H2904      C3225   1.084       .  S
N2906      H2909   1.043       .  S
N2906      H2910   1.046       .  S
C2911      C2916   1.412       .  A
C2911      H2918   1.084       .  S
C2912      C3567   1.408       .  A
C2912      C2913   1.412       .  A
C2913      C2914   1.401       .  A
C2913      N2920   1.437       .  S
C2914      C2915   1.404       .  A
C2914      H2919   1.084       .  S
C2915      C3572   1.412       .  A
C2916      N2917   1.437       .  S
N2917      H2921   1.046       .  S
N2917      H2922   1.045       .  S
N2920      H2923   1.045       .  S
N2920      H2924   1.046       .  S
C2925      C3582   1.402       .  A
C2925      C2930   1.402       .  A
C2925      H2932   1.081       .  S
C2926      C2927   1.409       .  A
C2927      C2928   1.407       .  A
C2927      N2934   1.438       .  S
C2928      C2929   1.405       .  A
C2928      H2933   1.079       .  S
C2930      C3585   1.412       .  A
C2930      N2931   1.438       .  S
N2931      H2935   1.046       .  S
N2931      H2936   1.044       .  S
N2934      H2937   1.045       .  S
N2934      H3594   1.046       .  S
C2939      C2940   1.399       .  A
C2939      C2944   1.401       .  A
C2939      H2946   1.084       .  S
C2940      C3597   1.410   1_556  A
C2941      C2942   1.411       .  A
C2942      H2947   1.083       .  S
C2943      C3598   1.407   1_556  A
C2943      C2944   1.417       .  A
C2944      N2945   1.439       .  S
N2945      H2949   1.046       .  S
N2945      H2950   1.044       .  S
N2948      H2951   1.045       .  S
N2948      H2952   1.046       .  S
O2953      V2961   1.897       .  S
O2953      C3619   1.261       .  A
O2954      C2964   1.259       .  A
O2955      V3125   1.901       .  S
O2955      C2965   1.264       .  A
O2956      C3622   1.261       .  A
O2957      V3126   1.895   1_554  S
O2957      C2966   1.260       .  A
O2959      V2962   1.911       .  S
O2960      C2963   1.263   1_556  A
V2961      O3119   1.902   1_554  S
V2961      V3454   2.076   1_564  T
V2962      O3121   1.896       .  S
C2963      C3093   1.478       .  S
C2964      O3615   1.263       .  A
C2964      C3104   1.471       .  S
C2965      O3614   1.263   1_565  A
C2965      C3076   1.483       .  S
C2967      C3107   1.484       .  S
C2967      N2968   1.361       .  A
C2967      N2972   1.352       .  A
N2968      C2969   1.365       .  A
C2969      C3139   1.471       .  S
C2969      N2970   1.362       .  A
N2970      C2971   1.358       .  A
C2971      C3051   1.483       .  S
C2971      N2972   1.353       .  A
C2973      C3090   1.475       .  S
C2973      N2974   1.358       .  A
C2973      N2978   1.354       .  A
N2974      C2975   1.361       .  A
C2975      C3133   1.471   1_554  S
C2975      N2976   1.361       .  A
N2976      C2977   1.359       .  A
C2977      C3037   1.476       .  S
C2977      N2978   1.355       .  A
O2979      V2987   1.903       .  S
O2979      C3645   1.263       .  A
O2980      V2987   1.898       .  S
O2980      C3646   1.261       .  A
O2981      V2987   1.902       .  S
O2981      C3647   1.262       .  A
O2982      V2987   1.901       .  S
O2982      C3648   1.261       .  A
O2983      V2988   1.895       .  S
O2983      C2992   1.261       .  A
O2984      V2988   1.895       .  S
O2984      C2991   1.262       .  A
O2985      V2988   1.900       .  S
O2985      C2990   1.261       .  A
O2986      V2988   1.896       .  S
O2986      C2989   1.261       .  A
V2987      V3644   2.077       .  T
C2989      C3048   1.480       .  S
C2990      C3034   1.470       .  S
C2991      C3023   1.478       .  S
C2992      C3006   1.470       .  S
C2993      C3020   1.485       .  S
C2993      N2994   1.359       .  A
C2993      N2998   1.360       .  A
N2994      C2995   1.359       .  A
C2995      N2996   1.361       .  A
N2996      C2997   1.361       .  A
C2997      C3062   1.489       .  S
C2997      N2998   1.359       .  A
C2999      C3009   1.482       .  S
C2999      N3000   1.360       .  A
C2999      N3004   1.353       .  A
N3000      C3001   1.363       .  A
C3001      N3002   1.362       .  A
N3002      C3003   1.359       .  A
C3003      C3079   1.482       .  S
C3003      N3004   1.354       .  A
C3005      C3006   1.398       .  A
C3005      C3010   1.401       .  A
C3005      H3668   1.084       .  S
C3006      C3007   1.410       .  A
C3007      C3008   1.409       .  A
C3008      C3009   1.406       .  A
C3008      H3013   1.083       .  S
C3009      C3010   1.416       .  A
C3010      N3667   1.439       .  S
N3011      H3015   1.046       .  S
N3011      H3016   1.044       .  S
N3014      C3663   1.438       .  S
N3014      H3017   1.044       .  S
N3014      H3018   1.046       .  S
C3019      C3024   1.399       .  A
C3019      H3026   1.075       .  S
C3020      C3675   1.404       .  A
C3020      C3021   1.413       .  A
C3021      C3022   1.408       .  A
C3021      N3028   1.438       .  S
C3022      C3679   1.404       .  A
C3022      H3027   1.080       .  S
C3023      C3024   1.412       .  A
C3024      N3025   1.439       .  S
N3025      H3029   1.046       .  S
N3025      H3030   1.043       .  S
N3028      H3031   1.045       .  S
N3028      H3032   1.046       .  S
C3033      C3690   1.404       .  A
C3033      C3038   1.399       .  A
C3033      H3040   1.084       .  S
C3034      C3035   1.416       .  A
C3035      C3036   1.399       .  A
C3035      N3042   1.440       .  S
C3036      C3037   1.403       .  A
C3036      H3041   1.083       .  S
C3038      C3693   1.412       .  A
C3038      N3039   1.432       .  S
N3039      H3043   1.044       .  S
N3039      H3044   1.045       .  S
N3042      H3045   1.046       .  S
N3042      H3702   1.042       .  S
C3047      C3048   1.406       .  A
C3047      C3052   1.410       .  A
C3048      C3049   1.412       .  A
C3049      C3050   1.398       .  A
C3049      N3056   1.437       .  S
C3050      C3051   1.404       .  A
C3050      H3055   1.084       .  S
C3051      C3052   1.413       .  A
N3053      C3708   1.437       .  S
N3053      H3057   1.046       .  S
N3053      H3058   1.045       .  S
H3054      C3703   1.084       .  S
N3056      H3059   1.042       .  S
N3056      H3716   1.046       .  S
C3062      C3717   1.408       .  A
C3062      C3063   1.412       .  A
C3063      C3064   1.399       .  A
C3063      N3070   1.429       .  S
C3064      C3065   1.396       .  A
C3064      H3069   1.085       .  S
C3065      C3622   1.469       .  S
C3065      C3394   1.415       .  A
C3066      N3067   1.438       .  S
N3067      H3071   1.046       .  S
N3067      H3072   1.043       .  S
N3070      H3073   1.046       .  S
N3070      H3074   1.046       .  S
C3075      C3080   1.411       .  A
C3075      H3082   1.084       .  S
C3076      C3731   1.406   1_565  A
C3076      C3077   1.411       .  A
C3077      C3078   1.400       .  A
C3077      N3084   1.436       .  S
C3078      C3079   1.404       .  A
C3078      H3083   1.084       .  S
C3079      C3736   1.413   1_565  A
C3080      N3081   1.437       .  S
N3081      H3085   1.046       .  S
N3081      H3086   1.045       .  S
N3084      H3087   1.045       .  S
N3084      H3088   1.046       .  S
C3089      C3746   1.403       .  A
C3089      C3094   1.403       .  A
C3089      H3096   1.082       .  S
C3090      C3091   1.409   1_554  A
C3091      C3092   1.407       .  A
C3091      N3098   1.438       .  S
C3092      C3093   1.404   1_556  A
C3092      H3097   1.079       .  S
C3094      C3749   1.413       .  A
C3094      N3095   1.438       .  S
N3095      H3099   1.046       .  S
N3095      H3100   1.044       .  S
N3098      H3101   1.045       .  S
N3098      H3758   1.046       .  S
C3103      C3104   1.398       .  A
C3103      C3108   1.400       .  A
C3103      H3110   1.084       .  S
C3104      C3761   1.410       .  A
C3105      C3106   1.411       .  A
C3105      N3276   1.437       .  S
C3106      H3111   1.083       .  S
C3107      C3762   1.406       .  A
C3107      C3108   1.418       .  A
C3108      N3109   1.439       .  S
N3109      H3113   1.046       .  S
N3109      H3114   1.044       .  S
N3112      C3269   1.437       .  S
N3112      H3115   1.044       .  S
N3112      H3116   1.046       .  S
O3117      V3125   1.895       .  S
O3117      C3783   1.260       .  A
O3118      C3128   1.259   1_554  A
O3119      C3129   1.264       .  A
O3120      C3786   1.260       .  A
O3121      C3130   1.260       .  A
O3123      V3126   1.907       .  S
O3124      C3127   1.264       .  A
V3125      V3290   2.077   1_565  T
C3127      C3257   1.478       .  S
C3128      O3779   1.263       .  A
C3128      C3268   1.469       .  S
C3129      O3778   1.264   1_565  A
C3129      C3240   1.486       .  S
C3131      C3271   1.486       .  S
C3131      N3132   1.360       .  A
C3131      N3136   1.352       .  A
N3132      C3133   1.364       .  A
C3133      N3134   1.363       .  A
N3134      C3135   1.358       .  A
C3135      C3215   1.483       .  S
C3135      N3136   1.353       .  A
C3137      C3254   1.478       .  S
C3137      N3138   1.359       .  A
C3137      N3142   1.354       .  A
N3138      C3139   1.362       .  A
C3139      N3140   1.360       .  A
N3140      C3141   1.358       .  A
C3141      C3201   1.473       .  S
C3141      N3142   1.354       .  A
O3143      V3151   1.907       .  S
O3143      C3809   1.264       .  A
O3144      V3151   1.899       .  S
O3144      C3810   1.261       .  A
O3145      V3151   1.900       .  S
O3145      C3811   1.262       .  A
O3146      V3151   1.902       .  S
O3146      C3812   1.261       .  A
O3147      V3152   1.893       .  S
O3147      C3156   1.260       .  A
O3148      V3152   1.893       .  S
O3148      C3155   1.261       .  A
O3149      V3152   1.898       .  S
O3149      C3154   1.260       .  A
O3150      V3152   1.894       .  S
O3150      C3153   1.261       .  A
V3151      V3808   2.078       .  T
C3153      C3212   1.480       .  S
C3154      C3198   1.467       .  S
C3155      C3187   1.477       .  S
C3156      C3170   1.469       .  S
C3157      C3184   1.480       .  S
C3157      N3158   1.358       .  A
C3157      N3162   1.358       .  A
N3158      C3159   1.359       .  A
C3159      N3160   1.362       .  A
N3160      C3161   1.361       .  A
C3161      C3226   1.485       .  S
C3161      N3162   1.358       .  A
C3163      C3173   1.481       .  S
C3163      N3164   1.358       .  A
C3163      N3168   1.353       .  A
N3164      C3165   1.362       .  A
C3165      N3166   1.364       .  A
N3166      C3167   1.361       .  A
C3167      C3243   1.488       .  S
C3167      N3168   1.354       .  A
C3169      C3170   1.398       .  A
C3169      C3174   1.400       .  A
C3169      H3832   1.084       .  S
C3170      C3171   1.410       .  A
C3171      C3172   1.409       .  A
C3172      C3173   1.406       .  A
C3172      H3177   1.083       .  S
C3173      C3174   1.416       .  A
C3174      N3831   1.439       .  S
N3175      H3179   1.046       .  S
N3175      H3180   1.043       .  S
N3178      C3827   1.438       .  S
N3178      H3181   1.044       .  S
N3178      H3182   1.046       .  S
C3183      C3188   1.399       .  A
C3183      H3190   1.075       .  S
C3184      C3839   1.403       .  A
C3184      C3185   1.411       .  A
C3185      C3186   1.407       .  A
C3185      N3192   1.438       .  S
C3186      C3843   1.404       .  A
C3186      H3191   1.080       .  S
C3187      C3188   1.411       .  A
C3188      N3189   1.439       .  S
N3189      H3193   1.046       .  S
N3189      H3194   1.043       .  S
N3192      H3195   1.045       .  S
N3192      H3196   1.046       .  S
C3197      C3854   1.404       .  A
C3197      C3202   1.400       .  A
C3197      H3204   1.084       .  S
C3198      C3199   1.416       .  A
C3199      C3200   1.399       .  A
C3199      N3206   1.440       .  S
C3200      C3201   1.403       .  A
C3200      H3205   1.082       .  S
C3202      C3857   1.412       .  A
C3202      N3203   1.432       .  S
N3203      H3207   1.045       .  S
N3203      H3208   1.045       .  S
N3206      H3209   1.046       .  S
N3206      H3866   1.042       .  S
C3211      C3212   1.406       .  A
C3211      C3216   1.411       .  A
C3212      C3213   1.412       .  A
C3213      C3214   1.398       .  A
C3213      N3220   1.437       .  S
C3214      C3215   1.403       .  A
C3214      H3219   1.084       .  S
C3215      C3216   1.413       .  A
N3217      C3872   1.437       .  S
N3217      H3221   1.046       .  S
N3217      H3222   1.045       .  S
H3218      C3867   1.084       .  S
N3220      H3223   1.043       .  S
N3220      H3880   1.046       .  S
C3226      C3881   1.406       .  A
C3226      C3227   1.411       .  A
C3227      C3228   1.398       .  A
C3227      N3234   1.428       .  S
C3228      C3229   1.397       .  A
C3228      H3233   1.085       .  S
C3229      C3786   1.469       .  S
C3229      C3558   1.416       .  A
C3230      N3231   1.438       .  S
N3231      H3235   1.046       .  S
N3231      H3236   1.043       .  S
N3234      H3237   1.046       .  S
N3234      H3238   1.046       .  S
C3239      C3244   1.412       .  A
C3239      H3246   1.084       .  S
C3240      C3895   1.407   1_565  A
C3240      C3241   1.411       .  A
C3241      C3242   1.402       .  A
C3241      N3248   1.436       .  S
C3242      C3243   1.405       .  A
C3242      H3247   1.084       .  S
C3243      C3900   1.414   1_565  A
C3244      N3245   1.437       .  S
N3245      H3249   1.046       .  S
N3245      H3250   1.045       .  S
N3248      H3251   1.045       .  S
N3248      H3252   1.046       .  S
C3253      C3910   1.403       .  A
C3253      C3258   1.403       .  A
C3253      H3260   1.082       .  S
C3254      C3255   1.410       .  A
C3255      C3256   1.407       .  A
C3255      N3262   1.438       .  S
C3256      C3257   1.404       .  A
C3256      H3261   1.079       .  S
C3258      C3913   1.412       .  A
C3258      N3259   1.439       .  S
N3259      H3263   1.046       .  S
N3259      H3264   1.045       .  S
N3262      H3265   1.045       .  S
N3262      H3922   1.046       .  S
C3267      C3268   1.397       .  A
C3267      C3272   1.400       .  A
C3267      H3274   1.085       .  S
C3268      C3925   1.409   1_556  A
C3269      C3270   1.409       .  A
C3270      H3275   1.083       .  S
C3271      C3926   1.408   1_556  A
C3271      C3272   1.419       .  A
C3272      N3273   1.439       .  S
N3273      H3277   1.046       .  S
N3273      H3278   1.045       .  S
N3276      H3279   1.044       .  S
N3276      H3280   1.046       .  S
O3281      V3289   1.896       .  S
O3281      C3947   1.261       .  A
O3282      V3781   1.891   1_545  S
O3282      C3292   1.259       .  A
O3283      V3453   1.900       .  S
O3283      C3293   1.264       .  A
O3284      V3617   1.897       .  S
O3284      C3950   1.260   1_565  A
O3285      V3454   1.898   1_554  S
O3285      C3294   1.260       .  A
O3286      V3618   1.907       .  S
O3287      V3290   1.911       .  S
O3288      V3782   1.906       .  S
O3288      C3291   1.264   1_556  A
V3289      O3774   1.892       .  S
V3289      O3447   1.903   1_554  S
V3289      O3612   1.904       .  S
V3289      V4438   2.077   1_554  T
V3290      O3449   1.894       .  S
V3290      O3614   1.901       .  S
V3290      O3780   1.907   1_545  S
C3291      C3421   1.478       .  S
C3292      O3943   1.263       .  A
C3292      C3432   1.471       .  S
C3293      O3942   1.263       .  A
C3293      C3404   1.482       .  S
C3295      C3435   1.486       .  S
C3295      N3296   1.361       .  A
C3295      N3300   1.352       .  A
N3296      C3297   1.365       .  A
C3297      C3467   1.472       .  S
C3297      N3298   1.363       .  A
N3298      C3299   1.358       .  A
C3299      C3379   1.484       .  S
C3299      N3300   1.353       .  A
C3301      C3418   1.476       .  S
C3301      N3302   1.358       .  A
C3301      N3306   1.355       .  A
N3302      C3303   1.361       .  A
C3303      C3461   1.471   1_554  S
C3303      N3304   1.361       .  A
N3304      C3305   1.359       .  A
C3305      C3365   1.475       .  S
C3305      N3306   1.355       .  A
O3307      V3315   1.908       .  S
O3307      C3973   1.265       .  A
O3308      V3315   1.901       .  S
O3308      C3974   1.262       .  A
O3309      V3315   1.900       .  S
O3309      C3975   1.261       .  A
O3310      V3315   1.900       .  S
O3310      C3976   1.260       .  A
O3311      V3316   1.892       .  S
O3311      C3320   1.260       .  A
O3312      V3316   1.893       .  S
O3312      C3319   1.261       .  A
O3313      V3316   1.899       .  S
O3313      C3318   1.260       .  A
O3314      V3316   1.895       .  S
O3314      C3317   1.262       .  A
V3315      V3972   2.078       .  T
C3317      C3376   1.482       .  S
C3318      C3362   1.470       .  S
C3319      C3351   1.478       .  S
C3320      C3334   1.469       .  S
C3321      C3348   1.482       .  S
C3321      N3322   1.359       .  A
C3321      N3326   1.357       .  A
N3322      C3323   1.361       .  A
C3323      C3657   1.475   1_545  S
C3323      N3324   1.363       .  A
N3324      C3325   1.361       .  A
C3325      C3390   1.486       .  S
C3325      N3326   1.357       .  A
C3327      C3337   1.482       .  S
C3327      N3328   1.359       .  A
C3327      N3332   1.353       .  A
N3328      C3329   1.362       .  A
C3329      C3651   1.469       .  S
C3329      N3330   1.362       .  A
N3330      C3331   1.358       .  A
C3331      C3407   1.482       .  S
C3331      N3332   1.354       .  A
C3333      C3334   1.398       .  A
C3333      C3338   1.400       .  A
C3333      H3996   1.084       .  S
C3334      C3335   1.410       .  A
C3335      C3336   1.409       .  A
C3336      C3337   1.407       .  A
C3336      H3341   1.083       .  S
C3337      C3338   1.416       .  A
C3338      N3995   1.439       .  S
N3339      H3343   1.046       .  S
N3339      H3344   1.044       .  S
N3342      C3991   1.438       .  S
N3342      H3345   1.044       .  S
N3342      H3346   1.046       .  S
C3347      C3352   1.400       .  A
C3347      H3354   1.075       .  S
C3348      C4003   1.403       .  A
C3348      C3349   1.411       .  A
C3349      C3350   1.409       .  A
C3349      N3356   1.438       .  S
C3350      C4007   1.405       .  A
C3350      H3355   1.080       .  S
C3351      C3352   1.411       .  A
C3352      N3353   1.439       .  S
N3353      H3357   1.046       .  S
N3353      H3358   1.044       .  S
N3356      H3359   1.044       .  S
N3356      H3360   1.046       .  S
C3361      C4018   1.404       .  A
C3361      C3366   1.400       .  A
C3361      H3368   1.084       .  S
C3362      C3363   1.417       .  A
C3363      C3364   1.400       .  A
C3363      N3370   1.440       .  S
C3364      C3365   1.403       .  A
C3364      H3369   1.082       .  S
C3366      C4021   1.412       .  A
C3366      N3367   1.432       .  S
N3367      H3371   1.045       .  S
N3367      H3372   1.045       .  S
N3370      H3373   1.046       .  S
N3370      H4030   1.042       .  S
C3375      C3376   1.407       .  A
C3375      C3380   1.412       .  A
C3376      C3377   1.412       .  A
C3377      C3378   1.398       .  A
C3377      N3384   1.437       .  S
C3378      C3379   1.403       .  A
C3378      H3383   1.084       .  S
C3379      C3380   1.413       .  A
N3381      C4036   1.437       .  S
N3381      H3385   1.046       .  S
N3381      H3386   1.045       .  S
H3382      C4031   1.084       .  S
N3384      H3387   1.043       .  S
N3384      H4044   1.046       .  S
C3389      C3722   1.405       .  A
C3389      H3724   1.084       .  S
C3390      C4045   1.407   1_545  A
C3390      C3391   1.412       .  A
C3391      C3392   1.397       .  A
C3391      N3398   1.429       .  S
C3392      C3393   1.396       .  A
C3392      H3397   1.085       .  S
C3393      C3950   1.468       .  S
C3393      C4378   1.416   1_545  A
C3394      C3717   1.407       .  A
C3394      N3395   1.439       .  S
N3395      H3399   1.046       .  S
N3395      H3400   1.044       .  S
H3396      C3717   1.084       .  S
N3398      H3401   1.046       .  S
N3398      H3402   1.046       .  S
C3403      C3408   1.412       .  A
C3403      H3410   1.084       .  S
C3404      C4059   1.406       .  A
C3404      C3405   1.410       .  A
C3405      C3406   1.399       .  A
C3405      N3412   1.437       .  S
C3406      C3407   1.404       .  A
C3406      H3411   1.084       .  S
C3407      C4064   1.413       .  A
C3408      N3409   1.437       .  S
N3409      H3413   1.046       .  S
N3409      H3414   1.045       .  S
N3412      H3415   1.045       .  S
N3412      H3416   1.046       .  S
C3417      C4074   1.403       .  A
C3417      C3422   1.403       .  A
C3417      H3424   1.082       .  S
C3418      C3419   1.409   1_554  A
C3419      C3420   1.406       .  A
C3419      N3426   1.438       .  S
C3420      C3421   1.404   1_556  A
C3420      H3425   1.079       .  S
C3422      C4077   1.413       .  A
C3422      N3423   1.439       .  S
N3423      H3427   1.046       .  S
N3423      H3428   1.044       .  S
N3426      H3429   1.045       .  S
N3426      H4086   1.046       .  S
C3431      C3432   1.397       .  A
C3431      C3436   1.400       .  A
C3431      H3438   1.084       .  S
C3432      C4089   1.410       .  A
C3433      C3434   1.410       .  A
C3433      N3604   1.437       .  S
C3434      H3439   1.083       .  S
C3435      C4090   1.407       .  A
C3435      C3436   1.419       .  A
C3436      N3437   1.439       .  S
N3437      H3441   1.046       .  S
N3437      H3442   1.044       .  S
N3440      C3597   1.438       .  S
N3440      H3443   1.044       .  S
N3440      H3444   1.046       .  S
O3445      V3453   1.894       .  S
O3445      C4111   1.261       .  A
O3446      V3617   1.891   1_545  S
O3446      C3456   1.260   1_554  A
O3447      C3457   1.264       .  A
O3448      V3781   1.898       .  S
O3448      C4114   1.259   1_565  A
O3449      C3458   1.259       .  A
O3450      V3782   1.907       .  S
O3451      V3454   1.909       .  S
O3452      V3618   1.908       .  S
O3452      C3455   1.264       .  A
V3453      O3610   1.890       .  S
V3453      O3776   1.904       .  S
V3453      V4274   2.077       .  T
V3454      O3778   1.906       .  S
V3454      O3616   1.905   1_545  S
C3455      C3585   1.479       .  S
C3456      O4107   1.262       .  A
C3456      C3596   1.470       .  S
C3457      O4106   1.263       .  A
C3457      C3568   1.486       .  S
C3459      C3599   1.484       .  S
C3459      N3460   1.361       .  A
C3459      N3464   1.352       .  A
N3460      C3461   1.365       .  A
C3461      N3462   1.363       .  A
N3462      C3463   1.358       .  A
C3463      C3543   1.483       .  S
C3463      N3464   1.352       .  A
C3465      C3582   1.478       .  S
C3465      N3466   1.358       .  A
C3465      N3470   1.355       .  A
N3466      C3467   1.361       .  A
C3467      N3468   1.361       .  A
N3468      C3469   1.359       .  A
C3469      C3529   1.475       .  S
C3469      N3470   1.355       .  A
O3471      V3479   1.908       .  S
O3471      C4137   1.265       .  A
O3472      V3479   1.900       .  S
O3472      C4138   1.262       .  A
O3473      V3479   1.899       .  S
O3473      C4139   1.262       .  A
O3474      V3479   1.900       .  S
O3474      C4140   1.260       .  A
O3475      V3480   1.895       .  S
O3475      C3484   1.261       .  A
O3476      V3480   1.896       .  S
O3476      C3483   1.262       .  A
O3477      V3480   1.898       .  S
O3477      C3482   1.260       .  A
O3478      V3480   1.895       .  S
O3478      C3481   1.261       .  A
V3479      V4136   2.076       .  T
C3481      C3540   1.481       .  S
C3482      C3526   1.470       .  S
C3483      C3515   1.478       .  S
C3484      C3498   1.469       .  S
C3485      C3512   1.481       .  S
C3485      N3486   1.359       .  A
C3485      N3490   1.357       .  A
N3486      C3487   1.361       .  A
C3487      C3821   1.474   1_545  S
C3487      N3488   1.361       .  A
N3488      C3489   1.361       .  A
C3489      C3554   1.488       .  S
C3489      N3490   1.357       .  A
C3491      C3501   1.480       .  S
C3491      N3492   1.359       .  A
C3491      N3496   1.354       .  A
N3492      C3493   1.361       .  A
C3493      C3815   1.471       .  S
C3493      N3494   1.364       .  A
N3494      C3495   1.359       .  A
C3495      C3571   1.486       .  S
C3495      N3496   1.355       .  A
C3497      C3498   1.399       .  A
C3497      C3502   1.401       .  A
C3497      H4160   1.084       .  S
C3498      C3499   1.410       .  A
C3499      C3500   1.408       .  A
C3500      C3501   1.406       .  A
C3500      H3505   1.083       .  S
C3501      C3502   1.415       .  A
C3502      N4159   1.439       .  S
N3503      H3507   1.046       .  S
N3503      H3508   1.044       .  S
N3506      C4155   1.438       .  S
N3506      H3509   1.043       .  S
N3506      H3510   1.046       .  S
C3511      C3516   1.401       .  A
C3511      H3518   1.077       .  S
C3512      C4167   1.404       .  A
C3512      C3513   1.410       .  A
C3513      C3514   1.407       .  A
C3513      N3520   1.437       .  S
C3514      C4171   1.404       .  A
C3514      H3519   1.080       .  S
C3515      C3516   1.412       .  A
C3516      N3517   1.439       .  S
N3517      H3521   1.046       .  S
N3517      H3522   1.043       .  S
N3520      H3523   1.045       .  S
N3520      H3524   1.046       .  S
C3525      C4182   1.405       .  A
C3525      C3530   1.400       .  A
C3525      H3532   1.084       .  S
C3526      C3527   1.416       .  A
C3527      C3528   1.399       .  A
C3527      N3534   1.440       .  S
C3528      C3529   1.403       .  A
C3528      H3533   1.083       .  S
C3530      C4185   1.411       .  A
C3530      N3531   1.432       .  S
N3531      H3535   1.045       .  S
N3531      H3536   1.045       .  S
N3534      H3537   1.046       .  S
N3534      H4194   1.042       .  S
C3539      C3540   1.406       .  A
C3539      C3544   1.410       .  A
C3540      C3541   1.412       .  A
C3541      C3542   1.398       .  A
C3541      N3548   1.437       .  S
C3542      C3543   1.403       .  A
C3542      H3547   1.084       .  S
C3543      C3544   1.413       .  A
N3545      C4200   1.437       .  S
N3545      H3549   1.046       .  S
N3545      H3550   1.045       .  S
H3546      C4195   1.084       .  S
N3548      H3551   1.042       .  S
N3548      H4208   1.046       .  S
C3553      C3886   1.406       .  A
C3553      H3888   1.084       .  S
C3554      C4209   1.408   1_545  A
C3554      C3555   1.414       .  A
C3555      C3556   1.398       .  A
C3555      N3562   1.430       .  S
C3556      C3557   1.396       .  A
C3556      H3561   1.084       .  S
C3557      C4114   1.466       .  S
C3557      C4542   1.414   1_545  A
C3558      C3881   1.406       .  A
C3558      N3559   1.438       .  S
N3559      H3563   1.046       .  S
N3559      H3564   1.043       .  S
H3560      C3881   1.084       .  S
N3562      H3565   1.046       .  S
N3562      H3566   1.046       .  S
C3567      C3572   1.412       .  A
C3567      H3574   1.084       .  S
C3568      C4223   1.407       .  A
C3568      C3569   1.411       .  A
C3569      C3570   1.401       .  A
C3569      N3576   1.436       .  S
C3570      C3571   1.404       .  A
C3570      H3575   1.084       .  S
C3571      C4228   1.413       .  A
C3572      N3573   1.437       .  S
N3573      H3577   1.046       .  S
N3573      H3578   1.045       .  S
N3576      H3579   1.045       .  S
N3576      H3580   1.046       .  S
C3581      C4238   1.403       .  A
C3581      C3586   1.402       .  A
C3581      H3588   1.082       .  S
C3582      C3583   1.410       .  A
C3583      C3584   1.408       .  A
C3583      N3590   1.438       .  S
C3584      C3585   1.404       .  A
C3584      H3589   1.080       .  S
C3586      C4241   1.413       .  A
C3586      N3587   1.439       .  S
N3587      H3591   1.046       .  S
N3587      H3592   1.044       .  S
N3590      H3593   1.045       .  S
N3590      H4250   1.046       .  S
C3595      C3596   1.397       .  A
C3595      C3600   1.399       .  A
C3595      H3602   1.084       .  S
C3596      C4253   1.410   1_556  A
C3597      C3598   1.411       .  A
C3598      H3603   1.083       .  S
C3599      C4254   1.407   1_556  A
C3599      C3600   1.418       .  A
C3600      N3601   1.439       .  S
N3601      H3605   1.046       .  S
N3601      H3606   1.044       .  S
N3604      H3607   1.044       .  S
N3604      H3608   1.046       .  S
O3609      V3617   1.896       .  S
O3609      C4275   1.261       .  A
O3610      C3620   1.259       .  A
O3611      V3781   1.898       .  S
O3611      C3621   1.263       .  A
O3612      C4278   1.263       .  A
O3613      V3782   1.901   1_554  S
O3613      C3622   1.260       .  A
O3615      V3618   1.909       .  S
O3616      C3619   1.264   1_556  A
V3617      O3775   1.898   1_554  S
V3617      V4110   2.079   1_564  T
V3618      O3777   1.900       .  S
C3619      C3749   1.478       .  S
C3620      O4271   1.264       .  A
C3620      C3760   1.472       .  S
C3621      O4270   1.264   1_565  A
C3621      C3732   1.486       .  S
C3623      C3763   1.484       .  S
C3623      N3624   1.361       .  A
C3623      N3628   1.351       .  A
N3624      C3625   1.364       .  A
C3625      C3795   1.472       .  S
C3625      N3626   1.363       .  A
N3626      C3627   1.359       .  A
C3627      C3707   1.485       .  S
C3627      N3628   1.353       .  A
C3629      C3746   1.475       .  S
C3629      N3630   1.358       .  A
C3629      N3634   1.355       .  A
N3630      C3631   1.360       .  A
C3631      C3789   1.470   1_554  S
C3631      N3632   1.361       .  A
N3632      C3633   1.358       .  A
C3633      C3693   1.474       .  S
C3633      N3634   1.355       .  A
O3635      V3643   1.903       .  S
O3635      C4301   1.264       .  A
O3636      V3643   1.897       .  S
O3636      C4302   1.261       .  A
O3637      V3643   1.903       .  S
O3637      C4303   1.262       .  A
O3638      V3643   1.902       .  S
O3638      C4304   1.261       .  A
O3639      V3644   1.899       .  S
O3639      C3648   1.262       .  A
O3640      V3644   1.902       .  S
O3640      C3647   1.262       .  A
O3641      V3644   1.898       .  S
O3641      C3646   1.261       .  A
O3642      V3644   1.896       .  S
O3642      C3645   1.262       .  A
V3643      V4300   2.078       .  T
C3645      C3704   1.479       .  S
C3646      C3690   1.469       .  S
C3647      C3679   1.476       .  S
C3648      C3662   1.472       .  S
C3649      C3676   1.479       .  S
C3649      N3650   1.358       .  A
C3649      N3654   1.358       .  A
N3650      C3651   1.360       .  A
C3651      N3652   1.361       .  A
N3652      C3653   1.358       .  A
C3653      C3718   1.481       .  S
C3653      N3654   1.358       .  A
C3655      C3665   1.485       .  S
C3655      N3656   1.360       .  A
C3655      N3660   1.353       .  A
N3656      C3657   1.363       .  A
C3657      N3658   1.365       .  A
N3658      C3659   1.360       .  A
C3659      C3735   1.483       .  S
C3659      N3660   1.354       .  A
C3661      C3662   1.398       .  A
C3661      C3666   1.402       .  A
C3661      H4324   1.084       .  S
C3662      C3663   1.410       .  A
C3663      C3664   1.409       .  A
C3664      C3665   1.406       .  A
C3664      H3669   1.083       .  S
C3665      C3666   1.418       .  A
C3666      N4323   1.439       .  S
N3667      H3671   1.046       .  S
N3667      H3672   1.044       .  S
N3670      C4319   1.438       .  S
N3670      H3673   1.043       .  S
N3670      H3674   1.046       .  S
C3675      C3680   1.403       .  A
C3675      H3682   1.076       .  S
C3676      C4331   1.399       .  A
C3676      C3677   1.411       .  A
C3677      C3678   1.409       .  A
C3677      N3684   1.437       .  S
C3678      C4335   1.406       .  A
C3678      H3683   1.082       .  S
C3679      C3680   1.408       .  A
C3680      N3681   1.439       .  S
N3681      H3685   1.046       .  S
N3681      H3686   1.045       .  S
N3684      H3687   1.045       .  S
N3684      H3688   1.046       .  S
C3689      C4346   1.404       .  A
C3689      C3694   1.400       .  A
C3689      H3696   1.084       .  S
C3690      C3691   1.417       .  A
C3691      C3692   1.399       .  A
C3691      N3698   1.440       .  S
C3692      C3693   1.402       .  A
C3692      H3697   1.081       .  S
C3694      C4349   1.412       .  A
C3694      N3695   1.432       .  S
N3695      H3699   1.045       .  S
N3695      H3700   1.045       .  S
N3698      H3701   1.046       .  S
N3698      H4358   1.041       .  S
C3703      C3704   1.406       .  A
C3703      C3708   1.410       .  A
C3704      C3705   1.411       .  A
C3705      C3706   1.398       .  A
C3705      N3712   1.438       .  S
C3706      C3707   1.405       .  A
C3706      H3711   1.083       .  S
C3707      C3708   1.413       .  A
N3709      C4364   1.437       .  S
N3709      H3713   1.046       .  S
N3709      H3714   1.045       .  S
H3710      C4359   1.084       .  S
N3712      H3715   1.043       .  S
N3712      H4372   1.046       .  S
C3718      C4373   1.403       .  A
C3718      C3719   1.411       .  A
C3719      C3720   1.400       .  A
C3719      N3726   1.433       .  S
C3720      C3721   1.397       .  A
C3720      H3725   1.085       .  S
C3721      C4278   1.469       .  S
C3721      C4050   1.418       .  A
C3722      N3723   1.438       .  S
N3723      H3727   1.045       .  S
N3723      H3728   1.043       .  S
N3726      H3729   1.043       .  S
N3726      H3730   1.046       .  S
C3731      C3736   1.409       .  A
C3731      H3738   1.084       .  S
C3732      C4387   1.408   1_565  A
C3732      C3733   1.412       .  A
C3733      C3734   1.400       .  A
C3733      N3740   1.436       .  S
C3734      C3735   1.403       .  A
C3734      H3739   1.084       .  S
C3735      C4392   1.412   1_565  A
C3736      N3737   1.437       .  S
N3737      H3741   1.046       .  S
N3737      H3742   1.045       .  S
N3740      H3743   1.045       .  S
N3740      H3744   1.046       .  S
C3745      C4402   1.402       .  A
C3745      C3750   1.403       .  A
C3745      H3752   1.081       .  S
C3746      C3747   1.409   1_554  A
C3747      C3748   1.406       .  A
C3747      N3754   1.438       .  S
C3748      C3749   1.404   1_556  A
C3748      H3753   1.079       .  S
C3750      C4405   1.412       .  A
C3750      N3751   1.439       .  S
N3751      H3755   1.046       .  S
N3751      H3756   1.044       .  S
N3754      H3757   1.044       .  S
N3754      H4414   1.046       .  S
C3759      C3760   1.399       .  A
C3759      C3764   1.401       .  A
C3759      H3766   1.084       .  S
C3760      C4417   1.409       .  A
C3761      C3762   1.410       .  A
C3761      N3932   1.437       .  S
C3762      H3767   1.083       .  S
C3763      C4418   1.406       .  A
C3763      C3764   1.418       .  A
C3764      N3765   1.439       .  S
N3765      H3769   1.046       .  S
N3765      H3770   1.044       .  S
N3768      C3925   1.437       .  S
N3768      H3771   1.045       .  S
N3768      H3772   1.046       .  S
O3773      V3781   1.896       .  S
O3773      C4439   1.261       .  A
O3774      C3784   1.260       .  A
O3775      C3785   1.263       .  A
O3776      C4442   1.263       .  A
O3777      C3786   1.261       .  A
O3779      V3782   1.909       .  S
O3780      C3783   1.264       .  A
V3781      V3946   2.078   1_565  T
C3783      C3913   1.478       .  S
C3784      O4435   1.263   1_554  A
C3784      C3924   1.471   1_554  S
C3785      O4434   1.264   1_565  A
C3785      C3896   1.487       .  S
C3787      C3927   1.484       .  S
C3787      N3788   1.359       .  A
C3787      N3792   1.353       .  A
N3788      C3789   1.363       .  A
C3789      N3790   1.363       .  A
N3790      C3791   1.359       .  A
C3791      C3871   1.486       .  S
C3791      N3792   1.354       .  A
C3793      C3910   1.478       .  S
C3793      N3794   1.358       .  A
C3793      N3798   1.355       .  A
N3794      C3795   1.361       .  A
C3795      N3796   1.361       .  A
N3796      C3797   1.359       .  A
C3797      C3857   1.476       .  S
C3797      N3798   1.355       .  A
O3799      V3807   1.904       .  S
O3799      C4465   1.263       .  A
O3800      V3807   1.896       .  S
O3800      C4466   1.261       .  A
O3801      V3807   1.905       .  S
O3801      C4467   1.263       .  A
O3802      V3807   1.905       .  S
O3802      C4468   1.262       .  A
O3803      V3808   1.898       .  S
O3803      C3812   1.262       .  A
O3804      V3808   1.898       .  S
O3804      C3811   1.262       .  A
O3805      V3808   1.898       .  S
O3805      C3810   1.260       .  A
O3806      V3808   1.896       .  S
O3806      C3809   1.262       .  A
V3807      V4464   2.078       .  T
C3809      C3868   1.482       .  S
C3810      C3854   1.469       .  S
C3811      C3843   1.474       .  S
C3812      C3826   1.472       .  S
C3813      C3840   1.476       .  S
C3813      N3814   1.357       .  A
C3813      N3818   1.357       .  A
N3814      C3815   1.359       .  A
C3815      N3816   1.363       .  A
N3816      C3817   1.361       .  A
C3817      C3882   1.483       .  S
C3817      N3818   1.357       .  A
C3819      C3829   1.486       .  S
C3819      N3820   1.361       .  A
C3819      N3824   1.353       .  A
N3820      C3821   1.364       .  A
C3821      N3822   1.363       .  A
N3822      C3823   1.359       .  A
C3823      C3899   1.480       .  S
C3823      N3824   1.353       .  A
C3825      C3826   1.398       .  A
C3825      C3830   1.401       .  A
C3825      H4488   1.084       .  S
C3826      C3827   1.411       .  A
C3827      C3828   1.410       .  A
C3828      C3829   1.406       .  A
C3828      H3833   1.083       .  S
C3829      C3830   1.418       .  A
C3830      N4487   1.439       .  S
N3831      H3835   1.046       .  S
N3831      H3836   1.044       .  S
N3834      C4483   1.438       .  S
N3834      H3837   1.044       .  S
N3834      H3838   1.046       .  S
C3839      C3844   1.401       .  A
C3839      H3846   1.077       .  S
C3840      C4495   1.398       .  A
C3840      C3841   1.410       .  A
C3841      C3842   1.409       .  A
C3841      N3848   1.437       .  S
C3842      C4499   1.406       .  A
C3842      H3847   1.082       .  S
C3843      C3844   1.409       .  A
C3844      N3845   1.439       .  S
N3845      H3849   1.046       .  S
N3845      H3850   1.045       .  S
N3848      H3851   1.045       .  S
N3848      H3852   1.046       .  S
C3853      C4510   1.405       .  A
C3853      C3858   1.401       .  A
C3853      H3860   1.085       .  S
C3854      C3855   1.416       .  A
C3855      C3856   1.399       .  A
C3855      N3862   1.440       .  S
C3856      C3857   1.403       .  A
C3856      H3861   1.080       .  S
C3858      C4513   1.412       .  A
C3858      N3859   1.433       .  S
N3859      H3863   1.045       .  S
N3859      H3864   1.045       .  S
N3862      H3865   1.046       .  S
N3862      H4522   1.042       .  S
C3867      C3868   1.406       .  A
C3867      C3872   1.411       .  A
C3868      C3869   1.412       .  A
C3869      C3870   1.400       .  A
C3869      N3876   1.438       .  S
C3870      C3871   1.405       .  A
C3870      H3875   1.084       .  S
C3871      C3872   1.414       .  A
N3873      C4528   1.437       .  S
N3873      H3877   1.046       .  S
N3873      H3878   1.044       .  S
H3874      C4523   1.084       .  S
N3876      H3879   1.043       .  S
N3876      H4536   1.046       .  S
C3882      C4537   1.403       .  A
C3882      C3883   1.412       .  A
C3883      C3884   1.401       .  A
C3883      N3890   1.433       .  S
C3884      C3885   1.397       .  A
C3884      H3889   1.085       .  S
C3885      C4442   1.471       .  S
C3885      C4214   1.419       .  A
C3886      N3887   1.438       .  S
N3887      H3891   1.045       .  S
N3887      H3892   1.043       .  S
N3890      H3893   1.043       .  S
N3890      H3894   1.046       .  S
C3895      C3900   1.412       .  A
C3895      H3902   1.084       .  S
C3896      C4551   1.408   1_565  A
C3896      C3897   1.413       .  A
C3897      C3898   1.400       .  A
C3897      N3904   1.436       .  S
C3898      C3899   1.401       .  A
C3898      H3903   1.084       .  S
C3899      C4556   1.412   1_565  A
C3900      N3901   1.437       .  S
N3901      H3905   1.046       .  S
N3901      H3906   1.045       .  S
N3904      H3907   1.045       .  S
N3904      H3908   1.046       .  S
C3909      C4566   1.402       .  A
C3909      C3914   1.403       .  A
C3909      H3916   1.080       .  S
C3910      C3911   1.410       .  A
C3911      C3912   1.407       .  A
C3911      N3918   1.438       .  S
C3912      C3913   1.403       .  A
C3912      H3917   1.079       .  S
C3914      C4569   1.413       .  A
C3914      N3915   1.438       .  S
N3915      H3919   1.046       .  S
N3915      H3920   1.044       .  S
N3918      H3921   1.045       .  S
N3918      H4578   1.046       .  S
C3923      C3924   1.398       .  A
C3923      C3928   1.399       .  A
C3923      H3930   1.084       .  S
C3924      C4581   1.410   1_556  A
C3925      C3926   1.410       .  A
C3926      H3931   1.083       .  S
C3927      C4582   1.407   1_556  A
C3927      C3928   1.417       .  A
C3928      N3929   1.439       .  S
N3929      H3933   1.046       .  S
N3929      H3934   1.044       .  S
N3932      H3935   1.044       .  S
N3932      H3936   1.046       .  S
O3937      V3945   1.895       .  S
O3937      C4603   1.261       .  A
O3938      V4437   1.891   1_545  S
O3938      C3948   1.259       .  A
O3939      V4109   1.899       .  S
O3939      C3949   1.264       .  A
O3940      V4273   1.902       .  S
O3940      C4606   1.262   1_565  A
O3941      V4110   1.902   1_554  S
O3941      C3950   1.261       .  A
O3942      V4274   1.902       .  S
O3943      V3946   1.909       .  S
O3944      V4438   1.905       .  S
O3944      C3947   1.264   1_556  A
V3945      O4430   1.890       .  S
V3945      O4103   1.900   1_554  S
V3945      O4268   1.900       .  S
V3945      V5094   2.077   1_554  T
V3946      O4105   1.901       .  S
V3946      O4270   1.909       .  S
V3946      O4436   1.908   1_545  S
C3947      C4077   1.479       .  S
C3948      O4599   1.263       .  A
C3948      C4088   1.471       .  S
C3949      O4598   1.264       .  A
C3949      C4060   1.486       .  S
C3951      C4091   1.486       .  S
C3951      N3952   1.360       .  A
C3951      N3956   1.354       .  A
N3952      C3953   1.363       .  A
C3953      C4123   1.471       .  S
C3953      N3954   1.362       .  A
N3954      C3955   1.359       .  A
C3955      C4035   1.486       .  S
C3955      N3956   1.355       .  A
C3957      C4074   1.477       .  S
C3957      N3958   1.359       .  A
C3957      N3962   1.354       .  A
N3958      C3959   1.362       .  A
C3959      C4117   1.474   1_554  S
C3959      N3960   1.362       .  A
N3960      C3961   1.359       .  A
C3961      C4021   1.475       .  S
C3961      N3962   1.354       .  A
O3963      V3971   1.907       .  S
O3963      C4629   1.264       .  A
O3964      V3971   1.899       .  S
O3964      C4630   1.261       .  A
O3965      V3971   1.906       .  S
O3965      C4631   1.263       .  A
O3966      V3971   1.904       .  S
O3966      C4632   1.261       .  A
O3967      V3972   1.899       .  S
O3967      C3976   1.262       .  A
O3968      V3972   1.901       .  S
O3968      C3975   1.263       .  A
O3969      V3972   1.897       .  S
O3969      C3974   1.260       .  A
O3970      V3972   1.894       .  S
O3970      C3973   1.261       .  A
V3971      V4628   2.078       .  T
C3973      C4032   1.482       .  S
C3974      C4018   1.470       .  S
C3975      C4007   1.476       .  S
C3976      C3990   1.471       .  S
C3977      C4004   1.479       .  S
C3977      N3978   1.359       .  A
C3977      N3982   1.357       .  A
N3978      C3979   1.361       .  A
C3979      C4313   1.471   1_545  S
C3979      N3980   1.361       .  A
N3980      C3981   1.358       .  A
C3981      C4046   1.479       .  S
C3981      N3982   1.356       .  A
C3983      C3993   1.483       .  S
C3983      N3984   1.360       .  A
C3983      N3988   1.352       .  A
N3984      C3985   1.363       .  A
C3985      C4307   1.475       .  S
C3985      N3986   1.365       .  A
N3986      C3987   1.361       .  A
C3987      C4063   1.485       .  S
C3987      N3988   1.353       .  A
C3989      C3990   1.398       .  A
C3989      C3994   1.401       .  A
C3989      H4652   1.084       .  S
C3990      C3991   1.411       .  A
C3991      C3992   1.409       .  A
C3992      C3993   1.405       .  A
C3992      H3997   1.083       .  S
C3993      C3994   1.418       .  A
C3994      N4651   1.439       .  S
N3995      H3999   1.046       .  S
N3995      H4000   1.044       .  S
N3998      C4647   1.438       .  S
N3998      H4001   1.044       .  S
N3998      H4002   1.046       .  S
C4003      C4008   1.401       .  A
C4003      H4010   1.077       .  S
C4004      C4659   1.400       .  A
C4004      C4005   1.410       .  A
C4005      C4006   1.409       .  A
C4005      N4012   1.437       .  S
C4006      C4663   1.405       .  A
C4006      H4011   1.081       .  S
C4007      C4008   1.408       .  A
C4008      N4009   1.439       .  S
N4009      H4013   1.046       .  S
N4009      H4014   1.045       .  S
N4012      H4015   1.046       .  S
N4012      H4016   1.046       .  S
C4017      C4674   1.404       .  A
C4017      C4022   1.399       .  A
C4017      H4024   1.084       .  S
C4018      C4019   1.416       .  A
C4019      C4020   1.399       .  A
C4019      N4026   1.440       .  S
C4020      C4021   1.403       .  A
C4020      H4025   1.082       .  S
C4022      C4677   1.411       .  A
C4022      N4023   1.432       .  S
N4023      H4027   1.044       .  S
N4023      H4028   1.045       .  S
N4026      H4029   1.046       .  S
N4026      H4686   1.042       .  S
C4031      C4032   1.405       .  A
C4031      C4036   1.411       .  A
C4032      C4033   1.413       .  A
C4033      C4034   1.400       .  A
C4033      N4040   1.438       .  S
C4034      C4035   1.404       .  A
C4034      H4039   1.084       .  S
C4035      C4036   1.414       .  A
N4037      C4692   1.437       .  S
N4037      H4041   1.046       .  S
N4037      H4042   1.044       .  S
H4038      C4687   1.084       .  S
N4040      H4043   1.043       .  S
N4040      H4700   1.046       .  S
C4045      C4378   1.408       .  A
C4045      H4380   1.084       .  S
C4046      C4701   1.403   1_545  A
C4046      C4047   1.411       .  A
C4047      C4048   1.401       .  A
C4047      N4054   1.434       .  S
C4048      C4049   1.398       .  A
C4048      H4053   1.085       .  S
C4049      C4606   1.470       .  S
C4049      C5034   1.418   1_545  A
C4050      C4373   1.405       .  A
C4050      N4051   1.438       .  S
N4051      H4055   1.045       .  S
N4051      H4056   1.043       .  S
H4052      C4373   1.084       .  S
N4054      H4057   1.044       .  S
N4054      H4058   1.046       .  S
C4059      C4064   1.410       .  A
C4059      H4066   1.084       .  S
C4060      C4715   1.407       .  A
C4060      C4061   1.411       .  A
C4061      C4062   1.401       .  A
C4061      N4068   1.437       .  S
C4062      C4063   1.404       .  A
C4062      H4067   1.084       .  S
C4063      C4720   1.413       .  A
C4064      N4065   1.437       .  S
N4065      H4069   1.046       .  S
N4065      H4070   1.045       .  S
N4068      H4071   1.045       .  S
N4068      H4072   1.046       .  S
C4073      C4730   1.402       .  A
C4073      C4078   1.402       .  A
C4073      H4080   1.081       .  S
C4074      C4075   1.409   1_554  A
C4075      C4076   1.407       .  A
C4075      N4082   1.438       .  S
C4076      C4077   1.404   1_556  A
C4076      H4081   1.079       .  S
C4078      C4733   1.412       .  A
C4078      N4079   1.438       .  S
N4079      H4083   1.046       .  S
N4079      H4084   1.044       .  S
N4082      H4085   1.045       .  S
N4082      H4742   1.046       .  S
C4087      C4088   1.398       .  A
C4087      C4092   1.400       .  A
C4087      H4094   1.084       .  S
C4088      C4745   1.409       .  A
C4089      C4090   1.411       .  A
C4089      N4260   1.437       .  S
C4090      H4095   1.083       .  S
C4091      C4746   1.408       .  A
C4091      C4092   1.417       .  A
C4092      N4093   1.439       .  S
N4093      H4097   1.046       .  S
N4093      H4098   1.044       .  S
N4096      C4253   1.437       .  S
N4096      H4099   1.044       .  S
N4096      H4100   1.046       .  S
O4101      V4109   1.893       .  S
O4101      C4767   1.260       .  A
O4102      V4273   1.894   1_545  S
O4102      C4112   1.261       .  A
O4103      C4113   1.264       .  A
O4104      V4437   1.907       .  S
O4104      C4770   1.264   1_565  A
O4105      C4114   1.261       .  A
O4106      V4438   1.904       .  S
O4107      V4110   1.908       .  S
O4108      V4274   1.908       .  S
O4108      C4111   1.265       .  A
V4109      O4266   1.887       .  S
V4109      O4432   1.899       .  S
V4109      V4930   2.077       .  T
V4110      O4434   1.909       .  S
V4110      O4272   1.905   1_545  S
C4111      C4241   1.479       .  S
C4112      O4763   1.262       .  A
C4112      C4252   1.473   1_554  S
C4113      O4762   1.264       .  A
C4113      C4224   1.486       .  S
C4115      C4255   1.486       .  S
C4115      N4116   1.360       .  A
C4115      N4120   1.354       .  A
N4116      C4117   1.363       .  A
C4117      N4118   1.363       .  A
N4118      C4119   1.360       .  A
C4119      C4199   1.489       .  S
C4119      N4120   1.354       .  A
C4121      C4238   1.476       .  S
C4121      N4122   1.359       .  A
C4121      N4126   1.354       .  A
N4122      C4123   1.362       .  A
C4123      N4124   1.361       .  A
N4124      C4125   1.358       .  A
C4125      C4185   1.474       .  S
C4125      N4126   1.354       .  A
O4127      V4135   1.906       .  S
O4127      C4793   1.264       .  A
O4128      V4135   1.899       .  S
O4128      C4794   1.261       .  A
O4129      V4135   1.907       .  S
O4129      C4795   1.263       .  A
O4130      V4135   1.906       .  S
O4130      C4796   1.262       .  A
O4131      V4136   1.899       .  S
O4131      C4140   1.262       .  A
O4132      V4136   1.901       .  S
O4132      C4139   1.263       .  A
O4133      V4136   1.898       .  S
O4133      C4138   1.260       .  A
O4134      V4136   1.897       .  S
O4134      C4137   1.261       .  A
V4135      V4792   2.078       .  T
C4137      C4196   1.483       .  S
C4138      C4182   1.470       .  S
C4139      C4171   1.476       .  S
C4140      C4154   1.471       .  S
C4141      C4168   1.479       .  S
C4141      N4142   1.359       .  A
C4141      N4146   1.357       .  A
N4142      C4143   1.362       .  A
C4143      C4477   1.474   1_545  S
C4143      N4144   1.363       .  A
N4144      C4145   1.360       .  A
C4145      C4210   1.483       .  S
C4145      N4146   1.357       .  A
C4147      C4157   1.481       .  S
C4147      N4148   1.360       .  A
C4147      N4152   1.352       .  A
N4148      C4149   1.363       .  A
C4149      C4471   1.473       .  S
C4149      N4150   1.364       .  A
N4150      C4151   1.359       .  A
C4151      C4227   1.481       .  S
C4151      N4152   1.353       .  A
C4153      C4154   1.398       .  A
C4153      C4158   1.401       .  A
C4153      H4816   1.084       .  S
C4154      C4155   1.411       .  A
C4155      C4156   1.408       .  A
C4156      C4157   1.405       .  A
C4156      H4161   1.084       .  S
C4157      C4158   1.417       .  A
C4158      N4815   1.439       .  S
N4159      H4163   1.046       .  S
N4159      H4164   1.044       .  S
N4162      C4811   1.438       .  S
N4162      H4165   1.044       .  S
N4162      H4166   1.046       .  S
C4167      C4172   1.402       .  A
C4167      H4174   1.076       .  S
C4168      C4823   1.398       .  A
C4168      C4169   1.410       .  A
C4169      C4170   1.411       .  A
C4169      N4176   1.437       .  S
C4170      C4827   1.407       .  A
C4170      H4175   1.081       .  S
C4171      C4172   1.409       .  A
C4172      N4173   1.439       .  S
N4173      H4177   1.046       .  S
N4173      H4178   1.045       .  S
N4176      H4179   1.045       .  S
N4176      H4180   1.046       .  S
C4181      C4838   1.404       .  A
C4181      C4186   1.400       .  A
C4181      H4188   1.084       .  S
C4182      C4183   1.417       .  A
C4183      C4184   1.399       .  A
C4183      N4190   1.440       .  S
C4184      C4185   1.402       .  A
C4184      H4189   1.082       .  S
C4186      C4841   1.412       .  A
C4186      N4187   1.432       .  S
N4187      H4191   1.045       .  S
N4187      H4192   1.045       .  S
N4190      H4193   1.046       .  S
N4190      H4850   1.042       .  S
C4195      C4196   1.406       .  A
C4195      C4200   1.411       .  A
C4196      C4197   1.412       .  A
C4197      C4198   1.400       .  A
C4197      N4204   1.438       .  S
C4198      C4199   1.405       .  A
C4198      H4203   1.083       .  S
C4199      C4200   1.415       .  A
N4201      C4856   1.437       .  S
N4201      H4205   1.046       .  S
N4201      H4206   1.044       .  S
H4202      C4851   1.084       .  S
N4204      H4207   1.043       .  S
N4204      H4864   1.046       .  S
C4209      C4542   1.405       .  A
C4209      H4544   1.083       .  S
C4210      C4865   1.404   1_545  A
C4210      C4211   1.412       .  A
C4211      C4212   1.401       .  A
C4211      N4218   1.433       .  S
C4212      C4213   1.397       .  A
C4212      H4217   1.085       .  S
C4213      C4770   1.472       .  S
C4213      C5198   1.419   1_545  A
C4214      C4537   1.406       .  A
C4214      N4215   1.438       .  S
N4215      H4219   1.045       .  S
N4215      H4220   1.043       .  S
H4216      C4537   1.084       .  S
N4218      H4221   1.044       .  S
N4218      H4222   1.046       .  S
C4223      C4228   1.411       .  A
C4223      H4230   1.084       .  S
C4224      C4879   1.408       .  A
C4224      C4225   1.413       .  A
C4225      C4226   1.400       .  A
C4225      N4232   1.436       .  S
C4226      C4227   1.403       .  A
C4226      H4231   1.084       .  S
C4227      C4884   1.411       .  A
C4228      N4229   1.437       .  S
N4229      H4233   1.046       .  S
N4229      H4234   1.045       .  S
N4232      H4235   1.045       .  S
N4232      H4236   1.046       .  S
C4237      C4894   1.402       .  A
C4237      C4242   1.402       .  A
C4237      H4244   1.081       .  S
C4238      C4239   1.409       .  A
C4239      C4240   1.407       .  A
C4239      N4246   1.438       .  S
C4240      C4241   1.404       .  A
C4240      H4245   1.079       .  S
C4242      C4897   1.412       .  A
C4242      N4243   1.438       .  S
N4243      H4247   1.046       .  S
N4243      H4248   1.045       .  S
N4246      H4249   1.045       .  S
N4246      H4906   1.046       .  S
C4251      C4252   1.398       .  A
C4251      C4256   1.400       .  A
C4251      H4258   1.084       .  S
C4252      C4909   1.410   1_556  A
C4253      C4254   1.411       .  A
C4254      H4259   1.083       .  S
C4255      C4910   1.408   1_556  A
C4255      C4256   1.417       .  A
C4256      N4257   1.439       .  S
N4257      H4261   1.046       .  S
N4257      H4262   1.044       .  S
N4260      H4263   1.044       .  S
N4260      H4264   1.046       .  S
O4265      V4273   1.897       .  S
O4265      C4931   1.262       .  A
O4266      C4276   1.259       .  A
O4267      V4437   1.904       .  S
O4267      C4277   1.264       .  A
O4268      C4934   1.261       .  A
O4269      V4438   1.895   1_554  S
O4269      C4278   1.260       .  A
O4271      V4274   1.911       .  S
O4272      C4275   1.264   1_556  A
V4273      O4431   1.901   1_554  S
V4273      V4766   2.078   1_565  T
V4274      O4433   1.896       .  S
C4275      C4405   1.478       .  S
C4276      O4927   1.263       .  A
C4276      C4416   1.469       .  S
C4277      O4926   1.262   1_565  A
C4277      C4388   1.483       .  S
C4279      C4419   1.482       .  S
C4279      N4280   1.360       .  A
C4279      N4284   1.351       .  A
N4280      C4281   1.364       .  A
C4281      C4451   1.471       .  S
C4281      N4282   1.363       .  A
N4282      C4283   1.358       .  A
C4283      C4363   1.482       .  S
C4283      N4284   1.352       .  A
C4285      C4402   1.477       .  S
C4285      N4286   1.358       .  A
C4285      N4290   1.355       .  A
N4286      C4287   1.361       .  A
C4287      C4445   1.473   1_554  S
C4287      N4288   1.361       .  A
N4288      C4289   1.360       .  A
C4289      C4349   1.476       .  S
C4289      N4290   1.356       .  A
O4291      V4299   1.906       .  S
O4291      C4957   1.264       .  A
O4292      V4299   1.900       .  S
O4292      C4958   1.262       .  A
O4293      V4299   1.901       .  S
O4293      C4959   1.261       .  A
O4294      V4299   1.900       .  S
O4294      C4960   1.260       .  A
O4295      V4300   1.895       .  S
O4295      C4304   1.261       .  A
O4296      V4300   1.896       .  S
O4296      C4303   1.262       .  A
O4297      V4300   1.900       .  S
O4297      C4302   1.261       .  A
O4298      V4300   1.897       .  S
O4298      C4301   1.261       .  A
V4299      V4956   2.077       .  T
C4301      C4360   1.481       .  S
C4302      C4346   1.470       .  S
C4303      C4335   1.477       .  S
C4304      C4318   1.470       .  S
C4305      C4332   1.487       .  S
C4305      N4306   1.359       .  A
C4305      N4310   1.359       .  A
N4306      C4307   1.360       .  A
C4307      N4308   1.362       .  A
N4308      C4309   1.361       .  A
C4309      C4374   1.488       .  S
C4309      N4310   1.359       .  A
C4311      C4321   1.481       .  S
C4311      N4312   1.358       .  A
C4311      N4316   1.353       .  A
N4312      C4313   1.362       .  A
C4313      N4314   1.363       .  A
N4314      C4315   1.360       .  A
C4315      C4391   1.484       .  S
C4315      N4316   1.355       .  A
C4317      C4318   1.399       .  A
C4317      C4322   1.401       .  A
C4317      H4980   1.084       .  S
C4318      C4319   1.410       .  A
C4319      C4320   1.408       .  A
C4320      C4321   1.406       .  A
C4320      H4325   1.084       .  S
C4321      C4322   1.415       .  A
C4322      N4979   1.439       .  S
N4323      H4327   1.046       .  S
N4323      H4328   1.044       .  S
N4326      C4975   1.438       .  S
N4326      H4329   1.044       .  S
N4326      H4330   1.046       .  S
C4331      C4336   1.400       .  A
C4331      H4338   1.076       .  S
C4332      C4987   1.405       .  A
C4332      C4333   1.413       .  A
C4333      C4334   1.409       .  A
C4333      N4340   1.438       .  S
C4334      C4991   1.404       .  A
C4334      H4339   1.081       .  S
C4335      C4336   1.411       .  A
C4336      N4337   1.439       .  S
N4337      H4341   1.046       .  S
N4337      H4342   1.044       .  S
N4340      H4343   1.045       .  S
N4340      H4344   1.046       .  S
C4345      C5002   1.404       .  A
C4345      C4350   1.400       .  A
C4345      H4352   1.084       .  S
C4346      C4347   1.416       .  A
C4347      C4348   1.400       .  A
C4347      N4354   1.440       .  S
C4348      C4349   1.403       .  A
C4348      H4353   1.082       .  S
C4350      C5005   1.412       .  A
C4350      N4351   1.432       .  S
N4351      H4355   1.045       .  S
N4351      H4356   1.045       .  S
N4354      H4357   1.046       .  S
N4354      H5014   1.042       .  S
C4359      C4360   1.406       .  A
C4359      C4364   1.409       .  A
C4360      C4361   1.412       .  A
C4361      C4362   1.399       .  A
C4361      N4368   1.438       .  S
C4362      C4363   1.404       .  A
C4362      H4367   1.084       .  S
C4363      C4364   1.412       .  A
N4365      C5020   1.437       .  S
N4365      H4369   1.046       .  S
N4365      H4370   1.045       .  S
H4366      C5015   1.084       .  S
N4368      H4371   1.042       .  S
N4368      H5028   1.046       .  S
C4374      C5029   1.408       .  A
C4374      C4375   1.412       .  A
C4375      C4376   1.398       .  A
C4375      N4382   1.429       .  S
C4376      C4377   1.396       .  A
C4376      H4381   1.085       .  S
C4377      C4934   1.469       .  S
C4377      C4706   1.416       .  A
C4378      N4379   1.438       .  S
N4379      H4383   1.046       .  S
N4379      H4384   1.044       .  S
N4382      H4385   1.046       .  S
N4382      H4386   1.046       .  S
C4387      C4392   1.412       .  A
C4387      H4394   1.084       .  S
C4388      C5043   1.406   1_565  A
C4388      C4389   1.410       .  A
C4389      C4390   1.401       .  A
C4389      N4396   1.437       .  S
C4390      C4391   1.405       .  A
C4390      H4395   1.084       .  S
C4391      C5048   1.413   1_565  A
C4392      N4393   1.437       .  S
N4393      H4397   1.046       .  S
N4393      H4398   1.045       .  S
N4396      H4399   1.045       .  S
N4396      H4400   1.046       .  S
C4401      C5058   1.402       .  A
C4401      C4406   1.403       .  A
C4401      H4408   1.082       .  S
C4402      C4403   1.410   1_554  A
C4403      C4404   1.407       .  A
C4403      N4410   1.438       .  S
C4404      C4405   1.404   1_556  A
C4404      H4409   1.079       .  S
C4406      C5061   1.413       .  A
C4406      N4407   1.438       .  S
N4407      H4411   1.046       .  S
N4407      H4412   1.044       .  S
N4410      H4413   1.045       .  S
N4410      H5070   1.046       .  S
C4415      C4416   1.398       .  A
C4415      C4420   1.399       .  A
C4415      H4422   1.084       .  S
C4416      C5073   1.410       .  A
C4417      C4418   1.410       .  A
C4417      N4588   1.437       .  S
C4418      H4423   1.083       .  S
C4419      C5074   1.406       .  A
C4419      C4420   1.417       .  A
C4420      N4421   1.439       .  S
N4421      H4425   1.046       .  S
N4421      H4426   1.044       .  S
N4424      C4581   1.437       .  S
N4424      H4427   1.044       .  S
N4424      H4428   1.046       .  S
O4429      V4437   1.893       .  S
O4429      C5095   1.260       .  A
O4430      C4440   1.259   1_554  A
O4431      C4441   1.264       .  A
O4432      C5098   1.261       .  A
O4433      C4442   1.260       .  A
O4435      V4438   1.909       .  S
O4436      C4439   1.265       .  A
V4437      V4602   2.077   1_565  T
C4439      C4569   1.480       .  S
C4440      O5091   1.263       .  A
C4440      C4580   1.471       .  S
C4441      O5090   1.263   1_565  A
C4441      C4552   1.484       .  S
C4443      C4583   1.485       .  S
C4443      N4444   1.361   1_556  A
C4443      N4448   1.351       .  A
N4444      C4445   1.365   1_554  A
C4445      N4446   1.363       .  A
N4446      C4447   1.358       .  A
C4447      C4527   1.484       .  S
C4447      N4448   1.352       .  A
C4449      C4566   1.478       .  S
C4449      N4450   1.358       .  A
C4449      N4454   1.355       .  A
N4450      C4451   1.361       .  A
C4451      N4452   1.361       .  A
N4452      C4453   1.359       .  A
C4453      C4513   1.475       .  S
C4453      N4454   1.356       .  A
O4455      V4463   1.906       .  S
O4455      C5121   1.264       .  A
O4456      V4463   1.899       .  S
O4456      C5122   1.261       .  A
O4457      V4463   1.901       .  S
O4457      C5123   1.262       .  A
O4458      V4463   1.902       .  S
O4458      C5124   1.261       .  A
O4459      V4464   1.893       .  S
O4459      C4468   1.260       .  A
O4460      V4464   1.892       .  S
O4460      C4467   1.261       .  A
O4461      V4464   1.900       .  S
O4461      C4466   1.261       .  A
O4462      V4464   1.895       .  S
O4462      C4465   1.262       .  A
V4463      V5120   2.078       .  T
C4465      C4524   1.480       .  S
C4466      C4510   1.469       .  S
C4467      C4499   1.476       .  S
C4468      C4482   1.470       .  S
C4469      C4496   1.482       .  S
C4469      N4470   1.358       .  A
C4469      N4474   1.359       .  A
N4470      C4471   1.359       .  A
C4471      N4472   1.362       .  A
N4472      C4473   1.361       .  A
C4473      C4538   1.484       .  S
C4473      N4474   1.358       .  A
C4475      C4485   1.484       .  S
C4475      N4476   1.360       .  A
C4475      N4480   1.354       .  A
N4476      C4477   1.362       .  A
C4477      N4478   1.363       .  A
N4478      C4479   1.360       .  A
C4479      C4555   1.486       .  S
C4479      N4480   1.355       .  A
C4481      C4482   1.399       .  A
C4481      C4486   1.401       .  A
C4481      H5144   1.084       .  S
C4482      C4483   1.409       .  A
C4483      C4484   1.409       .  A
C4484      C4485   1.407       .  A
C4484      H4489   1.083       .  S
C4485      C4486   1.416       .  A
C4486      N5143   1.439       .  S
N4487      H4491   1.046       .  S
N4487      H4492   1.044       .  S
N4490      C5139   1.438       .  S
N4490      H4493   1.043       .  S
N4490      H4494   1.046       .  S
C4495      C4500   1.398       .  A
C4495      H4502   1.076       .  S
C4496      C5151   1.403       .  A
C4496      C4497   1.412       .  A
C4497      C4498   1.407       .  A
C4497      N4504   1.438       .  S
C4498      C5155   1.403       .  A
C4498      H4503   1.080       .  S
C4499      C4500   1.412       .  A
C4500      N4501   1.439       .  S
N4501      H4505   1.046       .  S
N4501      H4506   1.043       .  S
N4504      H4507   1.045       .  S
N4504      H4508   1.046       .  S
C4509      C5166   1.404       .  A
C4509      C4514   1.399       .  A
C4509      H4516   1.084       .  S
C4510      C4511   1.415       .  A
C4511      C4512   1.399       .  A
C4511      N4518   1.440       .  S
C4512      C4513   1.403       .  A
C4512      H4517   1.083       .  S
C4514      C5169   1.411       .  A
C4514      N4515   1.432       .  S
N4515      H4519   1.045       .  S
N4515      H4520   1.045       .  S
N4518      H4521   1.046       .  S
N4518      H5178   1.042       .  S
C4523      C4524   1.406       .  A
C4523      C4528   1.410       .  A
C4524      C4525   1.411       .  A
C4525      C4526   1.398       .  A
C4525      N4532   1.437       .  S
C4526      C4527   1.404       .  A
C4526      H4531   1.084       .  S
C4527      C4528   1.413       .  A
N4529      C5184   1.437       .  S
N4529      H4533   1.046       .  S
N4529      H4534   1.045       .  S
H4530      C5179   1.084       .  S
N4532      H4535   1.043       .  S
N4532      H5192   1.046       .  S
C4538      C5193   1.406       .  A
C4538      C4539   1.410       .  A
C4539      C4540   1.398       .  A
C4539      N4546   1.428       .  S
C4540      C4541   1.398       .  A
C4540      H4545   1.085       .  S
C4541      C5098   1.470       .  S
C4541      C4870   1.417       .  A
C4542      N4543   1.438       .  S
N4543      H4547   1.046       .  S
N4543      H4548   1.043       .  S
N4546      H4549   1.046       .  S
N4546      H4550   1.046       .  S
C4551      C4556   1.412       .  A
C4551      H4558   1.084       .  S
C4552      C5207   1.406   1_565  A
C4552      C4553   1.411       .  A
C4553      C4554   1.401       .  A
C4553      N4560   1.436       .  S
C4554      C4555   1.405       .  A
C4554      H4559   1.084       .  S
C4555      C5212   1.414   1_565  A
C4556      N4557   1.437       .  S
N4557      H4561   1.046       .  S
N4557      H4562   1.045       .  S
N4560      H4563   1.045       .  S
N4560      H4564   1.046       .  S
C4565      C5222   1.402       .  A
C4565      C4570   1.402       .  A
C4565      H4572   1.082       .  S
C4566      C4567   1.410       .  A
C4567      C4568   1.408       .  A
C4567      N4574   1.438       .  S
C4568      C4569   1.404       .  A
C4568      H4573   1.080       .  S
C4570      C5225   1.413       .  A
C4570      N4571   1.439       .  S
N4571      H4575   1.046       .  S
N4571      H4576   1.045       .  S
N4574      H4577   1.045       .  S
N4574      H5234   1.046       .  S
C4579      C4580   1.397       .  A
C4579      C4584   1.400       .  A
C4579      H4586   1.085       .  S
C4580      C5237   1.410   1_556  A
C4581      C4582   1.410       .  A
C4582      H4587   1.083       .  S
C4583      C5238   1.407   1_556  A
C4583      C4584   1.419       .  A
C4584      N4585   1.439       .  S
N4585      H4589   1.046       .  S
N4585      H4590   1.044       .  S
N4588      H4591   1.044       .  S
N4588      H4592   1.046       .  S
O4593      V4601   1.896       .  S
O4594      V5093   1.888   1_545  S
O4594      C4604   1.259       .  A
O4595      V4765   1.899       .  S
O4595      C4605   1.263       .  A
O4596      V4929   1.897       .  S
O4597      V4766   1.897       .  S
O4597      C4606   1.260       .  A
O4598      V4930   1.908       .  S
O4599      V4602   1.910       .  S
O4600      V5094   1.906       .  S
O4600      C4603   1.264   1_556  A
V4601      O5086   1.891       .  S
V4601      O4759   1.902   1_554  S
V4601      O4924   1.906       .  S
V4602      O4761   1.894       .  S
V4602      O4926   1.900       .  S
V4602      O5092   1.907   1_545  S
C4603      C4733   1.477       .  S
C4604      C4744   1.470       .  S
C4605      C4716   1.480       .  S
C4607      C4747   1.484       .  S
C4607      N4608   1.360       .  A
C4607      N4612   1.352       .  A
N4608      C4609   1.363       .  A
C4609      C4779   1.470       .  S
C4609      N4610   1.363       .  A
N4610      C4611   1.358       .  A
C4611      C4691   1.484       .  S
C4611      N4612   1.353       .  A
C4613      C4730   1.476       .  S
C4613      N4614   1.357       .  A
C4613      N4618   1.355       .  A
N4614      C4615   1.360       .  A
C4615      C4773   1.469   1_554  S
C4615      N4616   1.361       .  A
N4616      C4617   1.359       .  A
C4617      C4677   1.473       .  S
C4617      N4618   1.355       .  A
O4619      V4627   1.905       .  S
O4620      V4627   1.899       .  S
O4621      V4627   1.900       .  S
O4622      V4627   1.900       .  S
O4623      V4628   1.891       .  S
O4623      C4632   1.259       .  A
O4624      V4628   1.892       .  S
O4624      C4631   1.261       .  A
O4625      V4628   1.897       .  S
O4625      C4630   1.260       .  A
O4626      V4628   1.894       .  S
O4626      C4629   1.261       .  A
C4629      C4688   1.481       .  S
C4630      C4674   1.469       .  S
C4631      C4663   1.477       .  S
C4632      C4646   1.468       .  S
C4633      C4660   1.482   1_655  S
C4633      N4634   1.360       .  A
C4633      N4638   1.358       .  A
N4634      C4635   1.361       .  A
C4635      C4969   1.474   1_545  S
C4635      N4636   1.361       .  A
N4636      C4637   1.360       .  A
C4637      C4702   1.483       .  S
C4637      N4638   1.357       .  A
C4639      C4649   1.481       .  S
C4639      N4640   1.358       .  A
C4639      N4644   1.353       .  A
N4640      C4641   1.361       .  A
C4641      C4963   1.468       .  S
C4641      N4642   1.362       .  A
N4642      C4643   1.358       .  A
C4643      C4719   1.482       .  S
C4643      N4644   1.354       .  A
C4645      C4646   1.398       .  A
C4645      C4650   1.400       .  A
C4646      C4647   1.409       .  A
C4647      C4648   1.408       .  A
C4648      C4649   1.407       .  A
C4648      H4653   1.083       .  S
C4649      C4650   1.416       .  A
N4651      H4655   1.046       .  S
N4651      H4656   1.044       .  S
N4654      H4657   1.044       .  S
N4654      H4658   1.046       .  S
C4659      C4664   1.400       .  A
C4659      H4666   1.075       .  S
C4660      C4661   1.411   1_455  A
C4661      C4662   1.408       .  A
C4661      N4668   1.438       .  S
C4662      H4667   1.081       .  S
C4663      C4664   1.411       .  A
C4664      N4665   1.439       .  S
N4665      H4669   1.046       .  S
N4665      H4670   1.044       .  S
N4668      H4671   1.045       .  S
N4668      H4672   1.046       .  S
C4673      C4678   1.401       .  A
C4673      H4680   1.084       .  S
C4674      C4675   1.417       .  A
C4675      C4676   1.399       .  A
C4675      N4682   1.440       .  S
C4676      C4677   1.402       .  A
C4676      H4681   1.081       .  S
C4678      N4679   1.432       .  S
N4679      H4683   1.045   1_455  S
N4679      H4684   1.045       .  S
N4682      H4685   1.046       .  S
C4687      C4688   1.406       .  A
C4687      C4692   1.411       .  A
C4688      C4689   1.412       .  A
C4689      C4690   1.398       .  A
C4689      N4696   1.437       .  S
C4690      C4691   1.403       .  A
C4690      H4695   1.084       .  S
C4691      C4692   1.413       .  A
N4693      H4697   1.046   1_455  S
N4693      H4698   1.045   1_455  S
N4696      H4699   1.043       .  S
C4701      C5034   1.405       .  A
C4701      H5036   1.084       .  S
C4702      C4703   1.410       .  A
C4703      C4704   1.396       .  A
C4703      N4710   1.428       .  S
C4704      C4705   1.396       .  A
C4704      H4709   1.085       .  S
C4706      C5029   1.407       .  A
C4706      N4707   1.439       .  S
N4707      H4711   1.046       .  S
N4707      H4712   1.044       .  S
H4708      C5029   1.084       .  S
N4710      H4713   1.046       .  S
N4710      H4714   1.046       .  S
C4715      C4720   1.412       .  A
C4715      H4722   1.084       .  S
C4716      C4717   1.410       .  A
C4717      C4718   1.399       .  A
C4717      N4724   1.437       .  S
C4718      C4719   1.404       .  A
C4718      H4723   1.084       .  S
C4720      N4721   1.437       .  S
N4721      H4725   1.046       .  S
N4721      H4726   1.045       .  S
N4724      H4727   1.046       .  S
N4724      H4728   1.046       .  S
C4729      C4734   1.402       .  A
C4729      H4736   1.081       .  S
C4730      C4731   1.410   1_554  A
C4731      C4732   1.406       .  A
C4731      N4738   1.438       .  S
C4732      C4733   1.403   1_556  A
C4732      H4737   1.079       .  S
C4734      N4735   1.439       .  S
N4735      H4739   1.046       .  S
N4735      H4740   1.044       .  S
N4738      H4741   1.045       .  S
C4743      C4744   1.398       .  A
C4743      C4748   1.400       .  A
C4743      H4750   1.084       .  S
C4745      C4746   1.410       .  A
C4745      N4916   1.437       .  S
C4746      H4751   1.083       .  S
C4747      C4748   1.417       .  A
C4748      N4749   1.439       .  S
N4749      H4753   1.046       .  S
N4749      H4754   1.043       .  S
N4752      C4909   1.438       .  S
N4752      H4755   1.044       .  S
N4752      H4756   1.046       .  S
O4757      V4765   1.894       .  S
O4758      V4929   1.890   1_545  S
O4758      C4768   1.259   1_554  A
O4759      C4769   1.264       .  A
O4760      V5093   1.900       .  S
O4761      C4770   1.259       .  A
O4762      V5094   1.906       .  S
O4763      V4766   1.908       .  S
O4764      V4930   1.907       .  S
O4764      C4767   1.264       .  A
V4765      O4922   1.890       .  S
V4765      O5088   1.903       .  S
V4766      O5090   1.904   1_554  S
V4766      O4928   1.903   1_544  S
C4767      C4897   1.476       .  S
C4768      C4908   1.470       .  S
C4769      C4880   1.486       .  S
C4771      C4911   1.483       .  S
C4771      N4772   1.360       .  A
C4771      N4776   1.352       .  A
N4772      C4773   1.364       .  A
C4773      N4774   1.362       .  A
N4774      C4775   1.357       .  A
C4775      C4855   1.483       .  S
C4775      N4776   1.352       .  A
C4777      C4894   1.475       .  S
C4777      N4778   1.357       .  A
C4777      N4782   1.354       .  A
N4778      C4779   1.360       .  A
C4779      N4780   1.362       .  A
N4780      C4781   1.359       .  A
C4781      C4841   1.476       .  S
C4781      N4782   1.355       .  A
O4783      V4791   1.906       .  S
O4784      V4791   1.899       .  S
O4785      V4791   1.900       .  S
O4786      V4791   1.899       .  S
O4787      V4792   1.896       .  S
O4787      C4796   1.261       .  A
O4788      V4792   1.896       .  S
O4788      C4795   1.262       .  A
O4789      V4792   1.898       .  S
O4789      C4794   1.260       .  A
O4790      V4792   1.894       .  S
O4790      C4793   1.261       .  A
C4793      C4852   1.481       .  S
C4794      C4838   1.470       .  S
C4795      C4827   1.482       .  S
C4796      C4810   1.473       .  S
C4797      C4824   1.481   1_655  S
C4797      N4798   1.359       .  A
C4797      N4802   1.357       .  A
N4798      C4799   1.360       .  A
C4799      C5133   1.474   1_545  S
C4799      N4800   1.362       .  A
N4800      C4801   1.361       .  A
C4801      C4866   1.486       .  S
C4801      N4802   1.357       .  A
C4803      C4813   1.485       .  S
C4803      N4804   1.359       .  A
C4803      N4808   1.355       .  A
N4804      C4805   1.362       .  A
C4805      C5127   1.472       .  S
C4805      N4806   1.363       .  A
N4806      C4807   1.359       .  A
C4807      C4883   1.486       .  S
C4807      N4808   1.356       .  A
C4809      C4810   1.400       .  A
C4809      C4814   1.403       .  A
C4810      C4811   1.410       .  A
C4811      C4812   1.409       .  A
C4812      C4813   1.407       .  A
C4812      H4817   1.083       .  S
C4813      C4814   1.416       .  A
N4815      H4819   1.046       .  S
N4815      H4820   1.044       .  S
N4818      H4821   1.044       .  S
N4818      H4822   1.046       .  S
C4823      C4828   1.400       .  A
C4823      H4830   1.076       .  S
C4824      C4825   1.411   1_455  A
C4825      C4826   1.408   1_655  A
C4825      N4832   1.438       .  S
C4826      H4831   1.080   1_455  S
C4827      C4828   1.412       .  A
C4828      N4829   1.439       .  S
N4829      H4833   1.046       .  S
N4829      H4834   1.043       .  S
N4832      H4835   1.045       .  S
N4832      H4836   1.046       .  S
C4837      C4842   1.400       .  A
C4837      H4844   1.084       .  S
C4838      C4839   1.416       .  A
C4839      C4840   1.399       .  A
C4839      N4846   1.440       .  S
C4840      C4841   1.403       .  A
C4840      H4845   1.083       .  S
C4842      N4843   1.432       .  S
N4843      H4847   1.045   1_455  S
N4843      H4848   1.045       .  S
N4846      H4849   1.046       .  S
C4851      C4852   1.406       .  A
C4851      C4856   1.410       .  A
C4852      C4853   1.413       .  A
C4853      C4854   1.398       .  A
C4853      N4860   1.437       .  S
C4854      C4855   1.403       .  A
C4854      H4859   1.084       .  S
C4855      C4856   1.413       .  A
N4857      H4861   1.046       .  S
N4857      H4862   1.045   1_455  S
N4860      H4863   1.043       .  S
C4865      C5198   1.407       .  A
C4865      H5200   1.084       .  S
C4866      C4867   1.413       .  A
C4867      C4868   1.398       .  A
C4867      N4874   1.429       .  S
C4868      C4869   1.396       .  A
C4868      H4873   1.085       .  S
C4870      C5193   1.406       .  A
C4870      N4871   1.438       .  S
N4871      H4875   1.045       .  S
N4871      H4876   1.043       .  S
H4872      C5193   1.084       .  S
N4874      H4877   1.046       .  S
N4874      H4878   1.046       .  S
C4879      C4884   1.411       .  A
C4879      H4886   1.084       .  S
C4880      C4881   1.411       .  A
C4881      C4882   1.401       .  A
C4881      N4888   1.436       .  S
C4882      C4883   1.404       .  A
C4882      H4887   1.084       .  S
C4884      N4885   1.437       .  S
N4885      H4889   1.046       .  S
N4885      H4890   1.045       .  S
N4888      H4891   1.045       .  S
N4888      H4892   1.046       .  S
C4893      C4898   1.402       .  A
C4893      H4900   1.082       .  S
C4894      C4895   1.410       .  A
C4895      C4896   1.406       .  A
C4895      N4902   1.438       .  S
C4896      C4897   1.403       .  A
C4896      H4901   1.080       .  S
C4898      N4899   1.438       .  S
N4899      H4903   1.046       .  S
N4899      H4904   1.044       .  S
N4902      H4905   1.045       .  S
C4907      C4908   1.397       .  A
C4907      C4912   1.399       .  A
C4907      H4914   1.084       .  S
C4909      C4910   1.411       .  A
C4910      H4915   1.083       .  S
C4911      C4912   1.418       .  A
C4912      N4913   1.439       .  S
N4913      H4917   1.046       .  S
N4913      H4918   1.044       .  S
N4916      H4919   1.044       .  S
N4916      H4920   1.046       .  S
O4921      V4929   1.894       .  S
O4922      C4932   1.260       .  A
O4923      V5093   1.900       .  S
O4923      C4933   1.264       .  A
O4925      V5094   1.901   1_554  S
O4925      C4934   1.261       .  A
O4927      V4930   1.909       .  S
O4928      C4931   1.264   1_556  A
V4929      O5087   1.898   1_554  S
V4930      O5089   1.902       .  S
C4931      C5061   1.478       .  S
C4932      C5072   1.471       .  S
C4933      C5044   1.487       .  S
C4935      C5075   1.482       .  S
C4935      N4936   1.359       .  A
C4935      N4940   1.352       .  A
N4936      C4937   1.363       .  A
C4937      C5107   1.471       .  S
C4937      N4938   1.363       .  A
N4938      C4939   1.359       .  A
C4939      C5019   1.485       .  S
C4939      N4940   1.353       .  A
C4941      C5058   1.475       .  S
C4941      N4942   1.358       .  A
C4941      N4946   1.355       .  A
N4942      C4943   1.360       .  A
C4943      C5101   1.470   1_554  S
C4943      N4944   1.361       .  A
N4944      C4945   1.358       .  A
C4945      C5005   1.474       .  S
C4945      N4946   1.355       .  A
O4947      V4955   1.905       .  S
O4948      V4955   1.897       .  S
O4949      V4955   1.904       .  S
O4950      V4955   1.902       .  S
O4951      V4956   1.901       .  S
O4951      C4960   1.262       .  A
O4952      V4956   1.903       .  S
O4952      C4959   1.263       .  A
O4953      V4956   1.896       .  S
O4953      C4958   1.260       .  A
O4954      V4956   1.895       .  S
O4954      C4957   1.261       .  A
C4957      C5016   1.482       .  S
C4958      C5002   1.469       .  S
C4959      C4991   1.476       .  S
C4960      C4974   1.473       .  S
C4961      C4988   1.478       .  S
C4961      N4962   1.357   1_455  A
C4961      N4966   1.358   1_455  A
N4962      C4963   1.360       .  A
C4963      N4964   1.361       .  A
N4964      C4965   1.358       .  A
C4965      C5030   1.481       .  S
C4965      N4966   1.358       .  A
C4967      C4977   1.485       .  S
C4967      N4968   1.360       .  A
C4967      N4972   1.354       .  A
N4968      C4969   1.363       .  A
C4969      N4970   1.363       .  A
N4970      C4971   1.360       .  A
C4971      C5047   1.481       .  S
C4971      N4972   1.354       .  A
C4973      C4974   1.399       .  A
C4973      C4978   1.402       .  A
C4974      C4975   1.411       .  A
C4975      C4976   1.409       .  A
C4976      C4977   1.406       .  A
C4976      H4981   1.083       .  S
C4977      C4978   1.417       .  A
N4979      H4983   1.046       .  S
N4979      H4984   1.044       .  S
N4982      H4985   1.044       .  S
N4982      H4986   1.046       .  S
C4987      C4992   1.403       .  A
C4987      H4994   1.077       .  S
C4988      C4989   1.411   1_455  A
C4989      C4990   1.410   1_655  A
C4989      N4996   1.437       .  S
C4990      H4995   1.082   1_455  S
C4991      C4992   1.408       .  A
C4992      N4993   1.439       .  S
N4993      H4997   1.046       .  S
N4993      H4998   1.045       .  S
N4996      H4999   1.045       .  S
N4996      H5000   1.046       .  S
C5001      C5006   1.400       .  A
C5001      H5008   1.084       .  S
C5002      C5003   1.417       .  A
C5003      C5004   1.399       .  A
C5003      N5010   1.440       .  S
C5004      C5005   1.402       .  A
C5004      H5009   1.082       .  S
C5006      N5007   1.432       .  S
N5007      H5011   1.045   1_455  S
N5007      H5012   1.045       .  S
N5010      H5013   1.046       .  S
C5015      C5016   1.406       .  A
C5015      C5020   1.411       .  A
C5016      C5017   1.412       .  A
C5017      C5018   1.399       .  A
C5017      N5024   1.438       .  S
C5018      C5019   1.405       .  A
C5018      H5023   1.084       .  S
C5019      C5020   1.414       .  A
N5021      H5025   1.046       .  S
N5021      H5026   1.045   1_455  S
N5024      H5027   1.043       .  S
C5030      C5031   1.411       .  A
C5031      C5032   1.401       .  A
C5031      N5038   1.433       .  S
C5032      C5033   1.397       .  A
C5032      H5037   1.085       .  S
C5034      N5035   1.438       .  S
N5035      H5039   1.045       .  S
N5035      H5040   1.043       .  S
N5038      H5041   1.044       .  S
N5038      H5042   1.046       .  S
C5043      C5048   1.410       .  A
C5043      H5050   1.084       .  S
C5044      C5045   1.413       .  A
C5045      C5046   1.401       .  A
C5045      N5052   1.436       .  S
C5046      C5047   1.402       .  A
C5046      H5051   1.084       .  S
C5048      N5049   1.437       .  S
N5049      H5053   1.046       .  S
N5049      H5054   1.045       .  S
N5052      H5055   1.045       .  S
N5052      H5056   1.046       .  S
C5057      C5062   1.402       .  A
C5057      H5064   1.081       .  S
C5058      C5059   1.409   1_554  A
C5059      C5060   1.406       .  A
C5059      N5066   1.438       .  S
C5060      C5061   1.404   1_556  A
C5060      H5065   1.080       .  S
C5062      N5063   1.439       .  S
N5063      H5067   1.046       .  S
N5063      H5068   1.044       .  S
N5066      H5069   1.044       .  S
C5071      C5072   1.399       .  A
C5071      C5076   1.400       .  A
C5071      H5078   1.084       .  S
C5073      C5074   1.410       .  A
C5073      N5244   1.437       .  S
C5074      H5079   1.083       .  S
C5075      C5076   1.416       .  A
C5076      N5077   1.439       .  S
N5077      H5081   1.046       .  S
N5077      H5082   1.044       .  S
N5080      C5237   1.437       .  S
N5080      H5083   1.044       .  S
N5080      H5084   1.046       .  S
O5085      V5093   1.894       .  S
O5086      C5096   1.260       .  A
O5087      C5097   1.264       .  A
O5089      C5098   1.261       .  A
O5091      V5094   1.909       .  S
O5092      C5095   1.264       .  A
C5095      C5225   1.477       .  S
C5096      C5236   1.470   1_554  S
C5097      C5208   1.486       .  S
C5099      C5239   1.483       .  S
C5099      N5100   1.359       .  A
C5099      N5104   1.353       .  A
N5100      C5101   1.362       .  A
C5101      N5102   1.363       .  A
N5102      C5103   1.359       .  A
C5103      C5183   1.485       .  S
C5103      N5104   1.354       .  A
C5105      C5222   1.476       .  S
C5105      N5106   1.358       .  A
C5105      N5110   1.355       .  A
N5106      C5107   1.361       .  A
C5107      N5108   1.361       .  A
N5108      C5109   1.359       .  A
C5109      C5169   1.473       .  S
C5109      N5110   1.354       .  A
O5111      V5119   1.904       .  S
O5112      V5119   1.898       .  S
O5113      V5119   1.904       .  S
O5114      V5119   1.902       .  S
O5115      V5120   1.897       .  S
O5115      C5124   1.262       .  A
O5116      V5120   1.898       .  S
O5116      C5123   1.262       .  A
O5117      V5120   1.897       .  S
O5117      C5122   1.260       .  A
O5118      V5120   1.895       .  S
O5118      C5121   1.262       .  A
C5121      C5180   1.481       .  S
C5122      C5166   1.469       .  S
C5123      C5155   1.474       .  S
C5124      C5138   1.472       .  S
C5125      C5152   1.477       .  S
C5125      N5126   1.358   1_455  A
C5125      N5130   1.357   1_455  A
N5126      C5127   1.360       .  A
C5127      N5128   1.363       .  A
N5128      C5129   1.360       .  A
C5129      C5194   1.482       .  S
C5129      N5130   1.357       .  A
C5131      C5141   1.484       .  S
C5131      N5132   1.360       .  A
C5131      N5136   1.353       .  A
N5132      C5133   1.363       .  A
C5133      N5134   1.365       .  A
N5134      C5135   1.360       .  A
C5135      C5211   1.484       .  S
C5135      N5136   1.353       .  A
C5137      C5138   1.398       .  A
C5137      C5142   1.401       .  A
C5138      C5139   1.411       .  A
C5139      C5140   1.409       .  A
C5140      C5141   1.406       .  A
C5140      H5145   1.083       .  S
C5141      C5142   1.417       .  A
N5143      H5147   1.046       .  S
N5143      H5148   1.044       .  S
N5146      H5149   1.044       .  S
N5146      H5150   1.046       .  S
C5151      C5156   1.401       .  A
C5151      H5158   1.077       .  S
C5152      C5153   1.410   1_455  A
C5153      C5154   1.409   1_655  A
C5153      N5160   1.437       .  S
C5154      H5159   1.082   1_455  S
C5155      C5156   1.409       .  A
C5156      N5157   1.439       .  S
N5157      H5161   1.046       .  S
N5157      H5162   1.045       .  S
N5160      H5163   1.045       .  S
N5160      H5164   1.046       .  S
C5165      C5170   1.399       .  A
C5165      H5172   1.084       .  S
C5166      C5167   1.417       .  A
C5167      C5168   1.399       .  A
C5167      N5174   1.440       .  S
C5168      C5169   1.402       .  A
C5168      H5173   1.082       .  S
C5170      N5171   1.432       .  S
N5171      H5175   1.045   1_455  S
N5171      H5176   1.045       .  S
N5174      H5177   1.046       .  S
C5179      C5180   1.406       .  A
C5179      C5184   1.411       .  A
C5180      C5181   1.412       .  A
C5181      C5182   1.399       .  A
C5181      N5188   1.438       .  S
C5182      C5183   1.404       .  A
C5182      H5187   1.084       .  S
C5183      C5184   1.414       .  A
N5185      H5189   1.046   1_455  S
N5185      H5190   1.044   1_455  S
N5188      H5191   1.043       .  S
C5194      C5195   1.411       .  A
C5195      C5196   1.401       .  A
C5195      N5202   1.433       .  S
C5196      C5197   1.398       .  A
C5196      H5201   1.085       .  S
C5198      N5199   1.439       .  S
N5199      H5203   1.045       .  S
N5199      H5204   1.043       .  S
N5202      H5205   1.043       .  S
N5202      H5206   1.046       .  S
C5207      C5212   1.411       .  A
C5207      H5214   1.084       .  S
C5208      C5209   1.412       .  A
C5209      C5210   1.400       .  A
C5209      N5216   1.437       .  S
C5210      C5211   1.403       .  A
C5210      H5215   1.084       .  S
C5212      N5213   1.437       .  S
N5213      H5217   1.046       .  S
N5213      H5218   1.045       .  S
N5216      H5219   1.045       .  S
N5216      H5220   1.046       .  S
C5221      C5226   1.403       .  A
C5221      H5228   1.081       .  S
C5222      C5223   1.410       .  A
C5223      C5224   1.407       .  A
C5223      N5230   1.438       .  S
C5224      C5225   1.404       .  A
C5224      H5229   1.079       .  S
C5226      N5227   1.438       .  S
N5227      H5231   1.046       .  S
N5227      H5232   1.044       .  S
N5230      H5233   1.045       .  S
C5235      C5236   1.398       .  A
C5235      C5240   1.399       .  A
C5235      H5242   1.084       .  S
C5237      C5238   1.411       .  A
C5238      H5243   1.083       .  S
C5239      C5240   1.417       .  A
C5240      N5241   1.439       .  S
N5241      H5245   1.046       .  S
N5241      H5246   1.044       .  S
N5244      H5247   1.044       .  S
N5244      H5248   1.046       .  S
