geometry optimzed in LAMMPS
_audit_creation_date              2020-11-30 
_audit_creation_method            'lammps2cif' 
_symmetry_space_group_name_H-M    'P1' 
_symmetry_Int_Tables_number       1 
_symmetry_cell_setting            triclinic 
loop_ 
_symmetry_equiv_pos_as_xyz 
  x,y,z 
_cell_length_a                    48.45122065 
_cell_length_b                    39.292129631867546 
_cell_length_c                    27.59989993296516 
_cell_angle_alpha                 90.01798580183562 
_cell_angle_beta                  89.97834246921519 
_cell_angle_gamma                 90.15138604228409 
loop_ 
_atom_site_label 
_atom_site_type_symbol 
_atom_site_fract_x 
_atom_site_fract_y 
_atom_site_fract_z 
_atom_site_charge 
C1          C  0.71119894  0.24677223  0.43652066     0.33100
C2          C  0.71684589  0.24685558  0.03524245     0.33100
C3          C  0.72392323  0.27857358  0.46085276    -0.03100
C4          C  0.68340447  0.24317936  0.46329504    -0.03900
C5          C  0.72848708  0.21754934  0.45819227    -0.03800
C6          C  0.73146820  0.27666136  0.01033776    -0.03100
C7          C  0.68781622  0.24849384  0.01342487    -0.03900
C8          C  0.72938857  0.21581738  0.00970960    -0.03800
C9          C  0.74447821  0.30600664  0.02510397    -0.29200
N10         N  0.75107547  0.32430814  0.98514037     0.17300
C11         C  0.73410149  0.31009879  0.44712126    -0.29200
H12         H  0.73574071  0.31977231  0.41053061     0.19300
C13         C  0.66129620  0.25008202  0.03087974    -0.28100
N14         N  0.64359442  0.25084792  0.99285717     0.16100
C15         C  0.65574134  0.24569896  0.45138198    -0.28100
C16         C  0.74142336  0.18551640  0.02316433    -0.28400
N17         N  0.74732878  0.16768045  0.98233252     0.16600
H18         H  0.74514948  0.17680370  0.05978408     0.19200
C19         C  0.74351950  0.18997922  0.44152988    -0.28400
H20         H  0.74636657  0.18254721  0.40411234     0.19200
H21         H  0.64759438  0.24894163  0.41519698     0.19200
H22         H  0.74795618  0.31408863  0.06211594     0.19300
H23         H  0.65520042  0.25025123  0.06846388     0.19200
C24         C  0.71503293  0.24780176  0.18637194     0.33100
C25         C  0.71051164  0.24717232  0.28502808     0.33100
C26         C  0.73051827  0.27635790  0.21304546    -0.03100
C27         C  0.68570890  0.25131122  0.20660751    -0.03900
C28         C  0.72544299  0.21550194  0.21162093    -0.03800
C29         C  0.72820015  0.27596548  0.26354885    -0.03100
C30         C  0.68321088  0.25088376  0.25694796    -0.03900
C31         C  0.72317681  0.21514577  0.26202683    -0.03800
C32         C  0.73799755  0.30678529  0.28024590    -0.29200
N33         N  0.74636262  0.32546912  0.24161331     0.17300
C34         C  0.74162966  0.30749078  0.20041568    -0.29200
H35         H  0.74440298  0.31718667  0.16402134     0.19300
C36         C  0.65550606  0.25469780  0.26733732    -0.28100
N37         N  0.64138503  0.25748882  0.22471386     0.16100
C38         C  0.65975347  0.25573743  0.18772403    -0.28100
C39         C  0.73279531  0.18398542  0.27762253    -0.28400
N40         N  0.74077791  0.16578574  0.23820625     0.16600
H41         H  0.73373265  0.17509588  0.31468467     0.19200
C42         C  0.73637886  0.18462915  0.19773176    -0.28400
H43         H  0.74066800  0.17640314  0.16105726     0.19200
H44         H  0.65449171  0.25748211  0.14983772     0.19200
H45         H  0.73742707  0.31581354  0.31728198     0.19300
H46         H  0.64653227  0.25572207  0.30319080     0.19200
C47         C  0.81722908  0.00166330  0.03617201     0.33100
C48         C  0.81641362  0.99792529  0.43775537     0.33100
C49         C  0.79626282  0.02478778  0.01061165    -0.03100
C50         C  0.84462219  0.01209149  0.01186469    -0.03900
C51         C  0.79900880  0.46782466  0.01885392    -0.03800
C52         C  0.81128115  0.03309545  0.46085430    -0.03100
C53         C  0.84162313  0.98439245  0.46611509    -0.03900
C54         C  0.79397447  0.46993280  0.46975640    -0.03800
C55         C  0.80198102  0.06422171  0.44414401    -0.29200
N56         N  0.79441038  0.08347456  0.48276887     0.17300
C57         C  0.78545506  0.05601543  0.02327197    -0.29200
H58         H  0.78495000  0.06680870  0.05936563     0.19300
C59         C  0.86458059  0.49726570  0.45493428    -0.28100
N60         N  0.88108316  0.49637530  0.49476574     0.16100
C61         C  0.86604372  0.50501029  0.04109194    -0.28100
C62         C  0.78179837  0.44014245  0.45427650    -0.28400
N63         N  0.77442677  0.42175103  0.49380204     0.16600
H64         H  0.77931487  0.43190946  0.41710416     0.19200
C65         C  0.78803394  0.43668100  0.03185267    -0.28400
H66         H  0.78430994  0.42761150  0.06831238     0.19200
H67         H  0.87182512  0.50570217  0.07893237     0.19200
H68         H  0.79898239  0.07133353  0.40662815     0.19300
H69         H  0.87182233  0.49666045  0.41784470     0.19200
C70         C  0.81829009  0.00282485  0.28579947     0.33100
C71         C  0.81604745  0.00316291  0.18735541     0.33100
C72         C  0.79490225  0.02450683  0.26366234    -0.03100
C73         C  0.84426091  0.01737104  0.25992065    -0.03900
C74         C  0.79358675  0.47010365  0.27089727    -0.03800
C75         C  0.79381652  0.02459093  0.21266790    -0.03100
C76         C  0.84278625  0.01704775  0.20967280    -0.03900
C77         C  0.79347602  0.47013783  0.22031233    -0.03800
C78         C  0.78071045  0.05423350  0.19896249    -0.29200
N79         N  0.77325779  0.07156249  0.23925094     0.17300
C80         C  0.78249912  0.05443223  0.27865731    -0.29200
H81         H  0.78255602  0.06449995  0.31516710     0.19300
C82         C  0.86365960  0.49929765  0.20502044    -0.28100
N83         N  0.88038167  0.49845367  0.24455680     0.16100
C84         C  0.86419590  0.49875668  0.28497417    -0.28100
C85         C  0.78186820  0.43981681  0.20550362    -0.28400
N86         N  0.77496781  0.42161993  0.24551648     0.16600
H87         H  0.77963344  0.43103255  0.16852843     0.19200
C88         C  0.78204660  0.43965333  0.28565322    -0.28400
H89         H  0.77998572  0.43069686  0.32256230     0.19200
H90         H  0.87164308  0.49884369  0.32191482     0.19200
H91         H  0.77920119  0.06407327  0.16241424     0.19300
H92         H  0.87074586  0.49947351  0.16785389     0.19200
O93         O  0.55246642  0.22775617  0.93399330    -0.71300
O94         O  0.46956986  0.23958704  0.43668952    -0.71400
O95         O  0.50890711  0.28352278  0.40746644    -0.71400
O96         O  0.51498460  0.18317654  0.97103751    -0.71500
O97         O  0.51635303  0.21154400  0.04113919    -0.71400
O98         O  0.51118021  0.30689529  0.48113551    -0.71400
O99         O  0.47467270  0.25236953  0.01153969    -0.71400
O100        O  0.55109759  0.26055966  0.50443696    -0.71400
Ni101      Ni  0.50881665  0.23783193  0.43166329     1.25400
Ni102      Ni  0.51111327  0.26284438  0.51054496     1.25400
C103        C  0.56275622  0.24836915  0.46625999     0.90800
C104        C  0.46124738  0.23835505  0.97662963     0.90800
C105        C  0.50975159  0.30970605  0.43518762     0.90800
C106        C  0.51610706  0.18363609  0.01739659     0.91000
O107        O  0.55306088  0.26586662  0.20467285    -0.71300
O108        O  0.47401943  0.26358695  0.18802208    -0.71400
O109        O  0.51079721  0.30946941  0.22323833    -0.71400
O110        O  0.51619002  0.22060697  0.16807217    -0.71500
O111        O  0.51173682  0.19616804  0.24071432    -0.71400
O112        O  0.50612634  0.28537185  0.29608133    -0.71400
O113        O  0.46994934  0.23964769  0.26096053    -0.71400
O114        O  0.54804481  0.24214185  0.27759488    -0.71400
Ni115      Ni  0.51371080  0.26567787  0.19329364     1.25400
Ni116      Ni  0.50882610  0.24000937  0.27141868     1.25400
C117        C  0.56346169  0.25429144  0.24419717     0.90800
C118        C  0.45901659  0.25157703  0.22236646     0.90800
C119        C  0.50745125  0.31180390  0.26896513     0.90800
C120        C  0.51469502  0.19404620  0.19473698     0.91000
O121        O  0.96763651  0.07035989  0.97544426    -0.71300
O122        O  0.03653750  0.96651033  0.56297824    -0.71400
O123        O  0.98936336  0.99884408  0.53411000    -0.71400
O124        O  0.01606709  0.10699875  0.97981542    -0.71500
O125        O  0.01309822  0.44597488  0.99077324    -0.71400
O126        O  0.00973515  0.53292024  0.46486101    -0.71400
O127        O  0.05629665  0.48943148  0.97686211    -0.73000
O128        O  0.97058868  0.48822031  0.49369729    -0.71400
Ni129      Ni  0.99841146  0.95378897  0.55328319     1.25400
Ni130      Ni  0.01052207  0.48847058  0.49128685     1.25400
C131        C  0.95734538  0.50003063  0.53038808     0.90800
C132        C  0.06559238  0.50104884  0.01716335     0.90800
C133        C  0.00902409  0.55988014  0.49064721     0.90800
C134        C  0.00812324  0.44361961  0.03613412     0.91000
O135        O  0.04754468  0.08657362  0.28963321    -0.71300
O136        O  0.96821116  0.10128761  0.27737283    -0.71400
O137        O  0.00068540  0.06173480  0.32926134    -0.71400
O138        O  0.01551360  0.13026200  0.23735851    -0.71500
O139        O  0.01119301  0.43774022  0.25910362    -0.71400
O140        O  0.01469187  0.52089106  0.33143126    -0.71400
O141        O  0.97337720  0.47798856  0.30402524    -0.71400
O142        O  0.05255325  0.48118210  0.28570866    -0.71400
Ni143      Ni  0.00823572  0.09660541  0.28517226     1.25400
Ni144      Ni  0.01319618  0.47839301  0.29758932     1.25400
C145        C  0.06248097  0.49680988  0.24861679     0.90800
C146        C  0.95767734  0.49238770  0.27266628     0.90800
C147        C  0.01224896  0.54958610  0.30989663     0.90800
C148        C  0.00755239  0.43964867  0.21333490     0.91000
C149        C  0.30886789  0.24812970  0.45580769     0.33100
C150        C  0.31219465  0.24761943  0.05419047     0.33100
C151        C  0.29616309  0.21609606  0.47924859    -0.03100
C152        C  0.33723498  0.25069935  0.48072059    -0.03900
C153        C  0.29258881  0.27714909  0.48020091    -0.03800
C154        C  0.29909952  0.21690545  0.02853312    -0.03100
C155        C  0.34110429  0.24895217  0.03159262    -0.03900
C156        C  0.29765597  0.27784273  0.03008858    -0.03800
C157        C  0.28668238  0.18676577  0.04198707    -0.29200
N158        N  0.28006503  0.16929233  0.00116108     0.17300
C159        C  0.28332084  0.18646373  0.46416417    -0.29200
H160        H  0.27957370  0.17872889  0.42710733     0.19300
C161        C  0.36792159  0.24868026  0.04808335    -0.28100
N162        N  0.38513031  0.24856663  0.00923065     0.16100
C163        C  0.36447546  0.25434137  0.46692874    -0.28100
C164        C  0.28392853  0.30659425  0.04531024    -0.28400
N165        N  0.27645395  0.32469845  0.00560104     0.16600
H166        H  0.28017459  0.31417780  0.08243166     0.19200
C167        C  0.27959745  0.30685220  0.46626183    -0.28400
H168        H  0.27734790  0.31623391  0.42960838     0.19200
H169        H  0.37184033  0.25601973  0.43001674     0.19200
H170        H  0.28288741  0.17807654  0.07861042     0.19300
H171        H  0.37448162  0.24801209  0.08554431     0.19200
C172        C  0.31069058  0.24713311  0.20550471     0.33100
C173        C  0.31063939  0.24778854  0.30445353     0.33100
C174        C  0.29610620  0.21687381  0.23009424    -0.03100
C175        C  0.33918624  0.24687471  0.22969831    -0.03900
C176        C  0.29700990  0.27821101  0.22929020    -0.03800
C177        C  0.29608920  0.21728385  0.28068387    -0.03100
C178        C  0.33917165  0.24713025  0.28022641    -0.03900
C179        C  0.29698158  0.27849780  0.27988841    -0.03800
C180        C  0.28426480  0.18718741  0.29603575    -0.29200
N181        N  0.27708314  0.16877655  0.25635044     0.17300
C182        C  0.28424535  0.18645393  0.21590816    -0.29200
H183        H  0.28161718  0.17749657  0.17909804     0.19300
C184        C  0.36628886  0.24705863  0.29486003    -0.28100
N185        N  0.38267849  0.24699354  0.25485186     0.16100
C186        C  0.36630192  0.24683311  0.21478593    -0.28100
C187        C  0.28714247  0.30980713  0.29436385    -0.28400
N188        N  0.28114794  0.32822821  0.25412897     0.16600
H189        H  0.28535264  0.31893829  0.33124020     0.19200
C190        C  0.28718824  0.30941260  0.21423425    -0.28400
H191        H  0.28543868  0.31820486  0.17720767     0.19200
H192        H  0.37340018  0.24637601  0.17766137     0.19200
H193        H  0.28167773  0.17891947  0.33316409     0.19300
H194        H  0.37362882  0.24716829  0.33190534     0.19200
C195        C  0.21344978  0.49998470  0.05713064     0.33100
C196        C  0.21300774  0.49943625  0.45846099     0.33100
C197        C  0.22696311  0.46838068  0.03387417    -0.03100
C198        C  0.18594177  0.50218279  0.02950063    -0.03900
C199        C  0.22025846  0.03239867  0.02955129    -0.03800
C200        C  0.22629319  0.46892437  0.48379018    -0.03100
C201        C  0.18402254  0.49991311  0.48094414    -0.03900
C202        C  0.21378820  0.03205241  0.48018488    -0.03800
C203        C  0.23635812  0.43774300  0.46959713    -0.29200
N204        N  0.24290762  0.41833209  0.00860125     0.17300
C205        C  0.23566550  0.43649833  0.04859849    -0.29200
H206        H  0.23611873  0.42697318  0.08537219     0.19300
C207        C  0.15727931  0.49830712  0.46431333    -0.28100
N208        N  0.13257850  0.00998842  0.01416643     0.16100
C209        C  0.15810578  0.50104967  0.04043134    -0.28100
C210        C  0.22695174  0.06137897  0.46530724    -0.28400
N211        N  0.24137915  0.07855629  0.00169590     0.16600
H212        H  0.23079765  0.06915513  0.42829554     0.19200
C213        C  0.23431992  0.06152393  0.04269133    -0.28400
H214        H  0.23870035  0.06999358  0.07922200     0.19200
H215        H  0.14469973  0.00910028  0.08956061     0.19200
H216        H  0.23861786  0.42868898  0.43275924     0.19300
H217        H  0.13923010  0.99044840  0.42658628     0.19200
C218        C  0.21433878  0.49928147  0.30744854     0.33100
C219        C  0.21144538  0.49958671  0.20868890     0.33100
C220        C  0.22883560  0.46958633  0.28195269    -0.03100
C221        C  0.18526015  0.49776059  0.28587560    -0.03900
C222        C  0.21796359  0.03017639  0.28169418    -0.03800
C223        C  0.22740591  0.46968091  0.23144019    -0.03100
C224        C  0.18343427  0.49805284  0.23550065    -0.03900
C225        C  0.21923140  0.03010597  0.23127512    -0.03800
C226        C  0.24002558  0.44020341  0.21559337    -0.29200
N227        N  0.24893715  0.42260220  0.25495717     0.17300
C228        C  0.24219256  0.44015903  0.29562700    -0.29200
H229        H  0.24596577  0.43164006  0.33232795     0.19300
C230        C  0.15555171  0.49564501  0.22434487    -0.28100
N231        N  0.13106321  0.02269880  0.24814293     0.16100
C232        C  0.15898513  0.49477155  0.30403401    -0.28100
C233        C  0.23326225  0.05903758  0.21722163    -0.28400
N234        N  0.24058307  0.07651656  0.25762990     0.16600
H235        H  0.23684814  0.06748841  0.18041355     0.19200
C236        C  0.23129459  0.05937039  0.29721821    -0.28400
H237        H  0.23307591  0.06819942  0.33423079     0.19200
H238        H  0.13765622  0.02171596  0.32608004     0.19200
H239        H  0.24182890  0.43167587  0.17844338     0.19300
H240        H  0.14266124  0.01928006  0.17259931     0.19200
C241        C  0.21419153  0.49900778  0.40490857    -0.10200
C242        C  0.21503854  0.49902609  0.36102691    -0.11700
C243        C  0.21129913  0.49964726  0.11083764    -0.10200
C244        C  0.21051038  0.49960929  0.15487613    -0.11700
C245        C  0.26466910  0.13631701  0.25718440    -0.10200
C246        C  0.25369740  0.10856124  0.25785683    -0.11700
C247        C  0.27071685  0.36164660  0.25390435    -0.10200
C248        C  0.26104361  0.39005347  0.25410227    -0.11700
C249        C  0.26685704  0.13737188  0.00003579    -0.10200
C250        C  0.25521400  0.11007459  0.00022725    -0.11700
C251        C  0.26362972  0.35682427  0.00667779    -0.10200
C252        C  0.25351442  0.38498656  0.00806086    -0.11700
C253        C  0.30957784  0.24841556  0.40212455    -0.10200
C254        C  0.31038675  0.24819875  0.35816825    -0.11700
C255        C  0.31138287  0.24701144  0.10786048    -0.10200
C256        C  0.31094109  0.24688504  0.15181831    -0.11700
C257        C  0.08849608  0.05332434  0.27268944    -0.13300
C258        C  0.10227764  0.03221476  0.24230615    -0.28500
H259        H  0.09975523  0.50915786  0.20566573     0.15700
H260        H  0.09169714  0.02312712  0.21006843     0.16300
C261        C  0.10346335  0.01599687  0.02073327    -0.13300
C262        C  0.08724173  0.02824365  0.98541128    -0.28500
H263        H  0.10682410  0.49319036  0.95421786     0.15700
H264        H  0.08997440  0.98077815  0.57323214     0.16300
C265        C  0.00919109  0.59124277  0.46438779    -0.15400
C266        C  0.01034349  0.60375620  0.42468534     0.08600
C267        C  0.01187733  0.59785578  0.37443724     0.10500
C268        C  0.01254786  0.57984193  0.33911162    -0.16300
C269        C  0.00594325  0.40957348  0.18413378    -0.15400
C270        C  0.00471505  0.39411155  0.14660286     0.08600
C271        C  0.00441345  0.39443058  0.09574714     0.10500
C272        C  0.00557506  0.41126796  0.05948112    -0.16300
C273        C  0.42861926  0.25186063  0.21789496    -0.13300
C274        C  0.41237192  0.24626630  0.25679079    -0.28500
H275        H  0.41968795  0.25791850  0.18293430     0.15700
H276        H  0.42190025  0.24186643  0.29188433     0.16300
C277        C  0.43076242  0.23796603  0.97561017    -0.13300
C278        C  0.41486456  0.24841211  0.01258090    -0.28500
H279        H  0.41720898  0.24337988  0.43881771     0.15700
H280        H  0.42448016  0.25616811  0.04641205     0.16300
C281        C  0.50577988  0.34432473  0.29201499    -0.15400
C282        C  0.50561197  0.36177466  0.32768843     0.08600
C283        C  0.50703255  0.36091834  0.37831692     0.10500
C284        C  0.50866440  0.34252457  0.41288619    -0.16300
C285        C  0.51675542  0.15306043  0.04560373    -0.15400
C286        C  0.51683174  0.13967649  0.08480998     0.08600
C287        C  0.51649783  0.14361370  0.13549396     0.10500
C288        C  0.51587851  0.16173908  0.17065533    -0.16300
C289        C  0.91015578  0.49947576  0.24152419    -0.13300
C290        C  0.92713753  0.49075320  0.27826289    -0.28500
H291        H  0.91918868  0.50682095  0.20700756     0.15700
H292        H  0.91346739  0.08794659  0.28373408     0.16300
C293        C  0.81910251  0.00137835  0.33979739    -0.10200
C294        C  0.81854402  0.99895479  0.38383710    -0.11700
C295        C  0.81572613  0.00336681  0.13367880    -0.10200
C296        C  0.81649275  0.00297022  0.08976715    -0.11700
C297        C  0.91086535  0.49447934  0.49288215    -0.13300
C298        C  0.92681230  0.49974836  0.53208949    -0.28500
H299        H  0.92065644  0.49000538  0.45803475     0.15700
H300        H  0.91681314  0.06083644  0.05653273     0.16300
C301        C  0.75193662  0.13274855  0.23911176    -0.10200
C302        C  0.76173379  0.10442149  0.23954104    -0.11700
C303        C  0.75598493  0.35923658  0.24369224    -0.10200
C304        C  0.76451885  0.38818966  0.24507065    -0.11700
C305        C  0.61203331  0.26112564  0.21748234    -0.13300
C306        C  0.59360761  0.25415832  0.25246041    -0.28500
H307        H  0.60465419  0.26763383  0.18147147     0.15700
H308        H  0.60072728  0.24614196  0.28790770     0.16300
C309        C  0.76881542  0.14222983  0.47928881    -0.10200
C310        C  0.78102202  0.11528851  0.48027978    -0.11700
C311        C  0.76266051  0.38891890  0.49218512    -0.10200
C312        C  0.75278204  0.36058009  0.48967624    -0.11700
C313        C  0.70948633  0.24734655  0.38279492    -0.10200
C314        C  0.70888863  0.24713686  0.33876527    -0.11700
C315        C  0.71711598  0.24770849  0.13281793    -0.10200
C316        C  0.71773225  0.24703258  0.08889033    -0.11700
C317        C  0.61104346  0.25091211  0.49836940    -0.13300
C318        C  0.59327663  0.24604987  0.46150563    -0.28500
H319        H  0.60546076  0.25991939  0.03290524     0.15700
H320        H  0.60121701  0.23833971  0.42642851     0.16300
C321        C  0.71416413  0.24743810  0.93635518     0.33100
C322        C  0.71426101  0.24504356  0.53525926     0.33100
C323        C  0.73015323  0.27719645  0.95975372    -0.03100
C324        C  0.68629451  0.24865128  0.96302685    -0.03900
C325        C  0.72802536  0.21610895  0.95913944    -0.03800
C326        C  0.72541007  0.27739982  0.51132106    -0.03100
C327        C  0.68500954  0.24237879  0.51375815    -0.03900
C328        C  0.72997183  0.21684168  0.50864800    -0.03800
C329        C  0.73629409  0.30783628  0.52707751    -0.29200
N330        N  0.74153675  0.32748657  0.48778813     0.17300
C331        C  0.74246639  0.30722228  0.94501180    -0.29200
H332        H  0.74412881  0.31652739  0.90822684     0.19300
C333        C  0.65837451  0.24463896  0.53108624    -0.28100
N334        N  0.64059265  0.24639006  0.49309385     0.16100
C335        C  0.65865327  0.25008013  0.95106847    -0.28100
C336        C  0.74572631  0.18911792  0.52150495    -0.28400
N337        N  0.75382828  0.17296823  0.48045258     0.16600
H338        H  0.75052838  0.18093028  0.55798672     0.19200
C339        C  0.73925021  0.18592094  0.94308301    -0.28400
H340        H  0.74094616  0.17754034  0.90587193     0.19200
H341        H  0.65029717  0.25092669  0.91474907     0.19200
H342        H  0.73989950  0.31528795  0.56431237     0.19300
H343        H  0.65235244  0.24656063  0.56858346     0.19200
C344        C  0.71779891  0.24478635  0.68621693     0.33100
C345        C  0.71374005  0.24542485  0.78483088     0.33100
C346        C  0.73006090  0.27634618  0.71141350    -0.03100
C347        C  0.68852541  0.24345659  0.70685527    -0.03900
C348        C  0.73205967  0.21507237  0.71240730    -0.03800
C349        C  0.72801162  0.27657306  0.76184448    -0.03100
C350        C  0.68600424  0.24383040  0.75708402    -0.03900
C351        C  0.73007225  0.21537864  0.76289260    -0.03800
C352        C  0.73923975  0.30691686  0.77781839    -0.29200
N353        N  0.74799592  0.32493831  0.73870896     0.17300
C354        C  0.74247808  0.30666597  0.69794108    -0.29200
H355        H  0.74694606  0.31492162  0.66134934     0.19300
C356        C  0.65783665  0.24484211  0.76687444    -0.28100
N357        N  0.64377137  0.24512364  0.72384868     0.16100
C358        C  0.66250129  0.24428318  0.68747140    -0.28100
C359        C  0.74328088  0.18639513  0.77944687    -0.28400
N360        N  0.75302167  0.16876514  0.74060692     0.16600
H361        H  0.74522291  0.17841524  0.81678443     0.19200
C362        C  0.74629923  0.18598348  0.69956174    -0.28400
H363        H  0.75101987  0.17767943  0.66309100     0.19200
H364        H  0.65749508  0.24513825  0.64944718     0.19200
H365        H  0.74067984  0.31542316  0.81502660     0.19300
H366        H  0.64851746  0.24654486  0.80241042     0.19200
C367        C  0.81151330  0.99891703  0.53631749     0.33100
C368        C  0.81772930  0.99870348  0.93759537     0.33100
C369        C  0.80890195  0.03362443  0.51126364    -0.03100
C370        C  0.83857980  0.98517801  0.51621438    -0.03900
C371        C  0.79402923  0.46957065  0.52034590    -0.03800
C372        C  0.79650836  0.02337106  0.95967657    -0.03100
C373        C  0.84482915  0.01040353  0.96141935    -0.03900
C374        C  0.80069681  0.46820221  0.96834681    -0.03800
C375        C  0.78590776  0.05400086  0.94355510    -0.29200
N376        N  0.77852689  0.07297211  0.98242521     0.17300
C377        C  0.79814028  0.06496447  0.52380816    -0.29200
H378        H  0.79157367  0.07272408  0.55963746     0.19300
C379        C  0.86927714  0.50495448  0.96124984    -0.28100
N380        N  0.88400311  0.50643693  0.00335439     0.16100
C381        C  0.86466147  0.49725247  0.53489036    -0.28100
C382        C  0.79074572  0.43749850  0.95181646    -0.28400
N383        N  0.78312176  0.41864257  0.99070818     0.16600
H384        H  0.78955899  0.42922510  0.91446878     0.19200
C385        C  0.78179967  0.43924546  0.53439025    -0.28400
H386        H  0.77926362  0.43012455  0.57112868     0.19200
H387        H  0.87165920  0.49622378  0.57204983     0.19200
H388        H  0.78578009  0.06297192  0.90649922     0.19300
H389        H  0.87787965  0.50589589  0.92510638     0.19200
C390        C  0.81609037  0.99319926  0.78651721     0.33100
C391        C  0.81413159  0.99490247  0.68790890     0.33100
C392        C  0.81050156  0.02832658  0.76380767    -0.03100
C393        C  0.84243344  0.98083461  0.76059178    -0.03900
C394        C  0.80121045  0.46712933  0.77019225    -0.03800
C395        C  0.80952532  0.02911565  0.71343577    -0.03100
C396        C  0.84146944  0.98199643  0.71013997    -0.03900
C397        C  0.80114892  0.46738263  0.71963375    -0.03800
C398        C  0.79795102  0.05992064  0.70026343    -0.29200
N399        N  0.79219625  0.07791281  0.74103022     0.17300
C400        C  0.79931529  0.05873110  0.78003544    -0.29200
H401        H  0.79502606  0.06541710  0.81730609     0.19300
C402        C  0.86848283  0.50617372  0.70488555    -0.28100
N403        N  0.88500504  0.50729104  0.74478482     0.16100
C404        C  0.86865856  0.50548512  0.78487588    -0.28100
C405        C  0.79010046  0.43686660  0.70421133    -0.28400
N406        N  0.78341732  0.41809327  0.74378672     0.16600
H407        H  0.78708204  0.42892848  0.66702292     0.19200
C408        C  0.79008842  0.43614370  0.78428644    -0.28400
H409        H  0.78700484  0.42743640  0.82108462     0.19200
H410        H  0.87582672  0.50599360  0.82198482     0.19200
H411        H  0.79241896  0.06767009  0.66390841     0.19300
H412        H  0.87574359  0.50694362  0.66780394     0.19200
O413        O  0.54826159  0.23756908  0.43072111    -0.71300
O414        O  0.47385747  0.22484940  0.94081572    -0.71400
O415        O  0.51111853  0.26953321  0.90591461    -0.71400
O416        O  0.50875473  0.19368758  0.46215466    -0.71500
O417        O  0.51077242  0.21769547  0.53542084    -0.71400
O418        O  0.51245920  0.29694855  0.97680657    -0.71400
O419        O  0.47096015  0.26298949  0.51029052    -0.71400
O420        O  0.55433638  0.25530327  0.00461798    -0.71400
Ni421      Ni  0.51310198  0.22535639  0.93540151     1.25400
Ni422      Ni  0.51454934  0.25494827  0.01112935     1.25400
C423        C  0.56640844  0.24196571  0.96772872     0.90800
C424        C  0.45719204  0.25158200  0.47382111     0.90800
C425        C  0.51080762  0.29715676  0.93074628     0.90800
C426        C  0.50973793  0.19130696  0.50839267     0.91000
O427        O  0.55547875  0.25590002  0.69827818    -0.71300
O428        O  0.47609816  0.25792343  0.67820217    -0.71400
O429        O  0.51409098  0.30132436  0.71560199    -0.71400
O430        O  0.51743464  0.21332958  0.65827117    -0.71500
O431        O  0.51120984  0.18771833  0.72967473    -0.71400
O432        O  0.50770839  0.27641361  0.78750786    -0.71400
O433        O  0.47065135  0.23293803  0.75006333    -0.71400
O434        O  0.54857405  0.23132723  0.77009188    -0.71400
Ni435      Ni  0.51607878  0.25790346  0.68487508     1.25400
Ni436      Ni  0.50938098  0.23123047  0.76184024     1.25400
C437        C  0.56495561  0.24337947  0.73808218     0.90800
C438        C  0.46032428  0.24624021  0.71189288     0.90800
C439        C  0.50990427  0.30313588  0.76109128     0.90800
C440        C  0.51451175  0.18638847  0.68367628     0.91000
O441        O  0.96120595  0.94130242  0.53693079    -0.71300
O442        O  0.04428217  0.04963443  0.95830537    -0.71400
O443        O  0.99622709  0.01499231  0.95512006    -0.71400
O444        O  0.00727695  0.90785779  0.56721663    -0.71500
O445        O  0.01124359  0.44509371  0.52216116    -0.71400
O446        O  0.02159211  0.53531385  0.93749819    -0.71400
O447        O  0.05041405  0.49092844  0.49500062    -0.73000
O448        O  0.97837368  0.49240312  0.95100653    -0.71400
Ni449      Ni  0.00609171  0.06109517  0.96440017     1.25400
Ni450      Ni  0.01760180  0.48996547  0.96139183     1.25400
C451        C  0.96200293  0.50431710  0.98327674     0.90800
C452        C  0.06275380  0.50397020  0.53188597     0.90800
C453        C  0.01948965  0.56166116  0.96455578     0.90800
C454        C  0.01118446  0.44311601  0.56821877     0.91000
O455        O  0.04134025  0.96609666  0.75450096    -0.71300
O456        O  0.96692058  0.94055210  0.72767246    -0.71400
O457        O  0.98915706  0.98427936  0.78776865    -0.71400
O458        O  0.01741371  0.91903240  0.69617018    -0.71500
O459        O  0.01509150  0.44602561  0.77774315    -0.71400
O460        O  0.01947430  0.53678675  0.82595764    -0.71400
O461        O  0.97750657  0.49213668  0.80987661    -0.71400
O462        O  0.05675057  0.49156174  0.79213452    -0.71400
Ni463      Ni  0.00402528  0.95392265  0.73932958     1.25400
Ni464      Ni  0.01737905  0.49091740  0.80420481     1.25400
C465        C  0.06676038  0.50199734  0.75156907     0.90800
C466        C  0.96212385  0.50292877  0.77519794     0.90800
C467        C  0.01805662  0.56234227  0.79741067     0.90800
C468        C  0.01159153  0.44198087  0.73233069     0.91000
C469        C  0.31391006  0.24886875  0.95521869     0.33100
C470        C  0.30821015  0.24733112  0.55448280     0.33100
C471        C  0.29996122  0.21751556  0.97796360    -0.03100
C472        C  0.34205245  0.24944204  0.98108567    -0.03900
C473        C  0.29849914  0.27862213  0.97950761    -0.03800
C474        C  0.29590582  0.21579852  0.52979857    -0.03100
C475        C  0.33680409  0.25040940  0.53110296    -0.03900
C476        C  0.29227570  0.27653460  0.53077231    -0.03800
C477        C  0.28301217  0.18619413  0.54429527    -0.29200
N478        N  0.27548842  0.16859538  0.50409032     0.17300
C479        C  0.28805318  0.18764279  0.96187296    -0.29200
H480        H  0.28554059  0.17973082  0.92458550     0.19300
C481        C  0.36363821  0.25412064  0.54683519    -0.28100
N482        N  0.38049011  0.25618421  0.50758308     0.16100
C483        C  0.36951673  0.24914825  0.96809338    -0.28100
C484        C  0.27914722  0.30557211  0.54637912    -0.28400
N485        N  0.27151976  0.32375064  0.50687014     0.16600
H486        H  0.27652840  0.31369846  0.58356906     0.19200
C487        C  0.28521609  0.30805344  0.96522637    -0.28400
H488        H  0.28263426  0.31704409  0.92844492     0.19200
H489        H  0.37739783  0.24951742  0.93142233     0.19200
H490        H  0.27900760  0.17828290  0.58120948     0.19300
H491        H  0.37046692  0.25510184  0.58410880     0.19200
C492        C  0.31034362  0.24716135  0.70482559     0.33100
C493        C  0.31301521  0.24804895  0.80347379     0.33100
C494        C  0.29657240  0.21691464  0.73051229    -0.03100
C495        C  0.33956298  0.24725546  0.72624486    -0.03900
C496        C  0.29694089  0.27796518  0.72938545    -0.03800
C497        C  0.29787476  0.21723616  0.78100894    -0.03100
C498        C  0.34094880  0.24759542  0.77667560    -0.03900
C499        C  0.29829759  0.27857715  0.77985565    -0.03800
C500        C  0.28489573  0.18784063  0.79690503    -0.29200
N501        N  0.27590517  0.17011700  0.75753862     0.17300
C502        C  0.28290947  0.18758515  0.71690423    -0.29200
H503        H  0.27847429  0.17948017  0.68022925     0.19300
C504        C  0.36851396  0.24634429  0.78873555    -0.28100
N505        N  0.38383645  0.24556239  0.74735451     0.16100
C506        C  0.36630492  0.24606940  0.70884268    -0.28100
C507        C  0.28658011  0.30891353  0.79462667    -0.28400
N508        N  0.27823316  0.32624361  0.75459450     0.16600
H509        H  0.28484966  0.31805623  0.83149675     0.19200
C510        C  0.28444981  0.30768564  0.71462040    -0.28400
H511        H  0.28078055  0.31562261  0.67763540     0.19200
H512        H  0.37239504  0.24463632  0.67122596     0.19200
H513        H  0.28227233  0.17989005  0.83414441     0.19300
H514        H  0.37686987  0.24557892  0.82509317     0.19200
C515        C  0.21115451  0.50034243  0.55733438     0.33100
C516        C  0.21749672  0.50068166  0.95842546     0.33100
C517        C  0.22536585  0.46919123  0.53435719    -0.03100
C518        C  0.18294884  0.50052164  0.53145735    -0.03900
C519        C  0.21356210  0.03210890  0.53079016    -0.03800
C520        C  0.22899929  0.46896891  0.98341193    -0.03100
C521        C  0.18816757  0.50250360  0.97914666    -0.03900
C522        C  0.21879936  0.03200283  0.97903849    -0.03800
C523        C  0.23882004  0.43777208  0.96868687    -0.29200
N524        N  0.24162964  0.41918028  0.50991541     0.17300
C525        C  0.23493809  0.43786289  0.54968629    -0.29200
H526        H  0.23590958  0.42883626  0.58667448     0.19300
C527        C  0.16188656  0.50139236  0.96086597    -0.28100
N528        N  0.12896200  0.98959193  0.50305013     0.16100
C529        C  0.15538004  0.49960170  0.54421561    -0.28100
C530        C  0.23202782  0.06094752  0.96263525    -0.28400
N531        N  0.23466642  0.07911382  0.50528349     0.16600
H532        H  0.23428500  0.06890790  0.92531362     0.19200
C533        C  0.22667035  0.06164340  0.54544890    -0.28400
H534        H  0.23027979  0.06971587  0.58241037     0.19200
H535        H  0.13733388  0.98916519  0.58057940     0.19200
H536        H  0.24217174  0.42953853  0.93171297     0.19300
H537        H  0.13877708  0.00948157  0.93589683     0.19200
C538        C  0.21885081  0.50145357  0.80743817     0.33100
C539        C  0.21427123  0.50176875  0.70881903     0.33100
C540        C  0.23046433  0.47012087  0.78150758    -0.03100
C541        C  0.18952994  0.50341290  0.78727675    -0.03900
C542        C  0.21166055  0.03467813  0.78174876    -0.03800
C543        C  0.22818205  0.47014454  0.73107863    -0.03100
C544        C  0.18692494  0.50352671  0.73707537    -0.03900
C545        C  0.21152639  0.03489741  0.73114177    -0.03800
C546        C  0.23792764  0.43904545  0.71511957    -0.29200
N547        N  0.24597024  0.42065348  0.75436887     0.17300
C548        C  0.24146328  0.43925485  0.79500566    -0.29200
H549        H  0.24537921  0.43067033  0.83162630     0.19300
C550        C  0.15896263  0.50308449  0.72707271    -0.28100
N551        N  0.12809351  0.98636826  0.75770209     0.16100
C552        C  0.16349570  0.50294175  0.80646647    -0.28100
C553        C  0.22535848  0.06408476  0.71673515    -0.28400
N554        N  0.23365040  0.08129660  0.75701214     0.16600
H555        H  0.22962988  0.07180370  0.67983779     0.19200
C556        C  0.22550933  0.06358789  0.79680764    -0.28400
H557        H  0.22991381  0.07079836  0.83385053     0.19200
H558        H  0.13775728  0.98681848  0.83459952     0.19200
H559        H  0.23858822  0.43018555  0.67801904     0.19300
H560        H  0.13669493  0.98930395  0.68064059     0.19200
C561        C  0.21952369  0.50098553  0.90490376    -0.10200
C562        C  0.22029345  0.50120760  0.86100676    -0.11700
C563        C  0.21068940  0.50099461  0.61115590    -0.10200
C564        C  0.21180420  0.50160049  0.65515907    -0.11700
C565        C  0.26144978  0.13884418  0.75820374    -0.10200
C566        C  0.24873380  0.11213071  0.75766531    -0.11700
C567        C  0.26652267  0.35902616  0.75414036    -0.10200
C568        C  0.25683066  0.38743285  0.75365679    -0.11700
C569        C  0.26122630  0.13730067  0.50417348    -0.10200
C570        C  0.24893283  0.11039840  0.50485840    -0.11700
C571        C  0.26023587  0.35670330  0.50832077    -0.10200
C572        C  0.25133733  0.38545339  0.50976788    -0.11700
C573        C  0.31466378  0.24915961  0.90135279    -0.10200
C574        C  0.31438346  0.24871336  0.85728259    -0.11700
C575        C  0.30816360  0.24695995  0.60781506    -0.10200
C576        C  0.30890014  0.24683483  0.65155443    -0.11700
C577        C  0.08596094  0.95834649  0.78971047    -0.13300
C578        C  0.09903750  0.97764516  0.75597854    -0.28500
H579        H  0.10365985  0.50773077  0.70582064     0.15700
H580        H  0.08759909  0.98551809  0.72404579     0.16300
C581        C  0.10040195  0.97972382  0.49868502    -0.13300
C582        C  0.08314897  0.97553727  0.53655459    -0.28500
H583        H  0.10135074  0.48810587  0.46445634     0.15700
H584        H  0.09573831  0.03287905  0.94964208     0.16300
C585        C  0.02196260  0.59419664  0.94159934    -0.15400
C586        C  0.02284250  0.61179700  0.90602541     0.08600
C587        C  0.02201811  0.61241450  0.85518883     0.10500
C588        C  0.02023316  0.59530647  0.81920904    -0.16300
C589        C  0.01070410  0.40867847  0.71157641    -0.15400
C590        C  0.01067636  0.39072962  0.67644514     0.08600
C591        C  0.01119205  0.39195193  0.62582391     0.10500
C592        C  0.01147274  0.41061071  0.59144171    -0.16300
C593        C  0.42971710  0.24860953  0.70793995    -0.13300
C594        C  0.41354413  0.24244190  0.74702933    -0.28500
H595        H  0.42066120  0.25676473  0.67392830     0.15700
H596        H  0.42334148  0.23591518  0.78118954     0.16300
C597        C  0.42659139  0.25162200  0.47252194    -0.13300
C598        C  0.41024878  0.25921095  0.51038367    -0.28500
H599        H  0.42110044  0.22846246  0.94280804     0.15700
H600        H  0.41961984  0.26589908  0.54487686     0.16300
C601        C  0.50780991  0.33534674  0.78462630    -0.15400
C602        C  0.50645008  0.35144422  0.82137932     0.08600
C603        C  0.50672667  0.34782257  0.87172804     0.10500
C604        C  0.50840678  0.32877741  0.90554519    -0.16300
C605        C  0.50989701  0.15899350  0.53252467    -0.15400
C606        C  0.51085280  0.14186408  0.56865743     0.08600
C607        C  0.51257854  0.13997644  0.61952061     0.10500
C608        C  0.51391804  0.15485911  0.65758429    -0.16300
C609        C  0.91476992  0.50972839  0.74263463    -0.13300
C610        C  0.93155643  0.50243794  0.78038716    -0.28500
H611        H  0.92396670  0.51617431  0.70789290     0.15700
H612        H  0.91163289  0.91503837  0.79012648     0.16300
C613        C  0.81704778  0.99372755  0.84017990    -0.10200
C614        C  0.81765530  0.99618594  0.88400032    -0.11700
C615        C  0.81227506  0.99663496  0.63414096    -0.10200
C616        C  0.81058120  0.99851934  0.59023113    -0.11700
C617        C  0.91349147  0.50924831  0.00977746    -0.13300
C618        C  0.93186123  0.50401243  0.97392509    -0.28500
H619        H  0.92110922  0.51419138  0.04615893     0.15700
H620        H  0.91886013  0.93605973  0.44113587     0.16300
C621        C  0.76683342  0.13708616  0.74220630    -0.10200
C622        C  0.77858554  0.10972905  0.74235306    -0.11700
C623        C  0.76047480  0.35745340  0.74049214    -0.10200
C624        C  0.77115059  0.38544864  0.74246446    -0.11700
C625        C  0.61442970  0.24802767  0.71475607    -0.13300
C626        C  0.59507453  0.24237637  0.74865922    -0.28500
H627        H  0.60777560  0.25354367  0.67797656     0.15700
H628        H  0.60136837  0.23528090  0.78500794     0.16300
C629        C  0.75874930  0.13483099  0.98111302    -0.10200
C630        C  0.76815889  0.10634520  0.98100390    -0.11700
C631        C  0.77228131  0.38548665  0.98835311    -0.10200
C632        C  0.76271042  0.35709009  0.98611068    -0.11700
C633        C  0.71267318  0.24724461  0.88259030    -0.10200
C634        C  0.71226672  0.24627300  0.83856791    -0.11700
C635        C  0.71848341  0.24444477  0.63257788    -0.10200
C636        C  0.71656072  0.24440861  0.58876043    -0.11700
C637        C  0.61397778  0.25234448  0.99810626    -0.13300
C638        C  0.59680254  0.24253495  0.96256258    -0.28500
H639        H  0.60289617  0.25703939  0.53400066     0.15700
H640        H  0.60527873  0.23321464  0.92868070     0.16300
C641        C  0.71077714  0.75203279  0.43771676     0.33100
C642        C  0.71400578  0.75138240  0.03651799     0.33100
C643        C  0.72403491  0.78325438  0.46201792    -0.03100
C644        C  0.68212470  0.75096029  0.46115375    -0.03900
C645        C  0.72550554  0.72198135  0.46258936    -0.03800
C646        C  0.72977409  0.78108803  0.01308376    -0.03100
C647        C  0.68578773  0.75261599  0.01091571    -0.03900
C648        C  0.72756922  0.72014740  0.01315694    -0.03800
C649        C  0.74397125  0.80948172  0.02886066    -0.29200
N650        N  0.75329101  0.82669015  0.98945459     0.17300
C651        C  0.73505449  0.81384131  0.44682678    -0.29200
H652        H  0.73757251  0.82218734  0.40971073     0.19300
C653        C  0.65826662  0.75082955  0.02369928    -0.28100
N654        N  0.64271105  0.74970362  0.98242002     0.16100
C655        C  0.65534191  0.74797473  0.44526086    -0.28100
C656        C  0.73815289  0.68951918  0.02867786    -0.28400
N657        N  0.74526496  0.67106572  0.98905097     0.16600
H658        H  0.73989196  0.68091659  0.06580705     0.19200
C659        C  0.73743350  0.69144438  0.44902729    -0.28400
H660        H  0.74017024  0.68221738  0.41239617     0.19200
H661        H  0.64863514  0.74610758  0.40793650     0.19200
H662        H  0.74707551  0.81722766  0.06610312     0.19300
H663        H  0.65042673  0.74903852  0.06028367     0.19200
C664        C  0.71272103  0.75339232  0.18757498     0.33100
C665        C  0.71003280  0.75450782  0.28622104     0.33100
C666        C  0.72512786  0.78531998  0.21180173    -0.03100
C667        C  0.68361310  0.75177872  0.20932812    -0.03900
C668        C  0.72737258  0.72386725  0.21356355    -0.03800
C669        C  0.72380923  0.78599622  0.26229267    -0.03100
C670        C  0.68188226  0.75200483  0.25973523    -0.03900
C671        C  0.72605657  0.72456284  0.26399022    -0.03800
C672        C  0.73627168  0.81620885  0.27693284    -0.29200
N673        N  0.74498033  0.83363964  0.23698967     0.17300
C674        C  0.73824827  0.81499673  0.19707878    -0.29200
H675        H  0.74287607  0.82223571  0.16012032     0.19300
C676        C  0.65407643  0.74769071  0.27107025    -0.28100
N677        N  0.63935539  0.74529309  0.22889185     0.16100
C678        C  0.65733189  0.74795285  0.19134672    -0.28100
C679        C  0.73629043  0.69385622  0.28051949    -0.28400
N680        N  0.74384577  0.67479398  0.24167709     0.16600
H681        H  0.73688847  0.68534558  0.31779709     0.19200
C682        C  0.73834123  0.69266245  0.20062478    -0.28400
H683        H  0.74085641  0.68303217  0.16414652     0.19200
H684        H  0.65169430  0.74649241  0.15345763     0.19200
H685        H  0.73908930  0.82465124  0.31392731     0.19300
H686        H  0.64534956  0.74642862  0.30711552     0.19200
C687        C  0.81051653  0.49956105  0.04455893     0.33100
C688        C  0.80889817  0.50003413  0.44584602     0.33100
C689        C  0.79539808  0.52879613  0.01906220    -0.03100
C690        C  0.83969237  0.50235720  0.02319061    -0.03900
C691        C  0.81096646  0.96654181  0.01402235    -0.03800
C692        C  0.79539670  0.53095194  0.47010338    -0.03100
C693        C  0.83746321  0.49895919  0.46979021    -0.03900
C694        C  0.79247590  0.97622476  0.45877379    -0.03800
C695        C  0.78380298  0.56113850  0.45500409    -0.29200
N696        N  0.77679947  0.57950350  0.49476858     0.17300
C697        C  0.78255230  0.55855974  0.03274114    -0.29200
H698        H  0.77913505  0.56734819  0.06942885     0.19300
C699        C  0.86698080  0.96893749  0.45723481    -0.28100
N700        N  0.87864635  0.96060879  0.50080173     0.16100
C701        C  0.86891793  0.02791965  0.02581518    -0.28100
C702        C  0.78130890  0.94531887  0.44418362    -0.28400
N703        N  0.77144122  0.92849032  0.48350598     0.16600
H704        H  0.78277679  0.93445779  0.40823116     0.19200
C705        C  0.79994399  0.93601846  0.03010798    -0.28400
H706        H  0.79505082  0.92945938  0.06721518     0.19200
H707        H  0.87479019  0.03403873  0.06257239     0.19200
H708        H  0.78119387  0.56946719  0.41791470     0.19300
H709        H  0.87607000  0.96424201  0.42206929     0.19200
C710        C  0.80826973  0.50048901  0.29488307     0.33100
C711        C  0.80801206  0.50044053  0.19603911     0.33100
C712        C  0.79422978  0.53133957  0.27080778    -0.03100
C713        C  0.83684101  0.49984246  0.27058344    -0.03900
C714        C  0.81350004  0.96764411  0.26158392    -0.03800
C715        C  0.79409453  0.53123425  0.22021903    -0.03100
C716        C  0.83660441  0.49996704  0.22013116    -0.03900
C717        C  0.81250220  0.96790702  0.21081599    -0.03800
C718        C  0.78185711  0.56118240  0.20538919    -0.29200
N719        N  0.77464064  0.57932988  0.24534367     0.17300
C720        C  0.78205514  0.56145765  0.28547697    -0.29200
H721        H  0.77943969  0.57010771  0.32242534     0.19300
C722        C  0.86619321  0.03266650  0.19203791    -0.28100
N723        N  0.88216821  0.04318379  0.22963560     0.16100
C724        C  0.86898294  0.03401065  0.27159864    -0.28100
C725        C  0.79718418  0.93957440  0.19679976    -0.28400
N726        N  0.78959071  0.92160741  0.23664126     0.16600
H727        H  0.79017263  0.93405635  0.16039728     0.19200
C728        C  0.79857624  0.93903093  0.27620201    -0.28400
H729        H  0.79285078  0.93290106  0.31309510     0.19200
H730        H  0.87690664  0.03845800  0.30770460     0.19200
H731        H  0.77906914  0.56956283  0.16836147     0.19300
H732        H  0.87130017  0.03616164  0.15418453     0.19200
O733        O  0.55259467  0.74222915  0.97536271    -0.71300
O734        O  0.47254303  0.71974758  0.46904728    -0.71400
O735        O  0.51013939  0.76367951  0.43273765    -0.71400
O736        O  0.51414645  0.69316206  0.99413814    -0.71500
O737        O  0.51584437  0.70883704  0.07180820    -0.71400
O738        O  0.50453587  0.79840879  0.49607609    -0.71400
O739        O  0.47444022  0.75368988  0.05808894    -0.71400
O740        O  0.54567473  0.76490751  0.54248895    -0.71400
Ni741      Ni  0.51205604  0.72372225  0.47213837     1.25400
Ni742      Ni  0.50607559  0.76085926  0.53999678     1.25400
C743        C  0.56133893  0.74938176  0.51228978     0.90800
C744        C  0.46035497  0.74605394  0.02052503     0.90800
C745        C  0.50679093  0.79350495  0.45055865     0.90800
C746        C  0.51567524  0.68569541  0.03903915     0.91000
O747        O  0.55148607  0.73611323  0.20661979    -0.71300
O748        O  0.47245740  0.73439872  0.19012639    -0.71400
O749        O  0.50956805  0.77957690  0.22505433    -0.71400
O750        O  0.51435962  0.69072051  0.17089106    -0.71500
O751        O  0.50928450  0.66612155  0.24321293    -0.71400
O752        O  0.50514655  0.75560239  0.29806243    -0.71400
O753        O  0.46764293  0.71109627  0.26330932    -0.71400
O754        O  0.54681070  0.71186830  0.27916407    -0.71400
Ni755      Ni  0.51214052  0.73581163  0.19547076     1.25400
Ni756      Ni  0.50706259  0.71021286  0.27352865     1.25400
C757        C  0.56215753  0.72508344  0.24620610     0.90800
C758        C  0.45700188  0.72380384  0.22477433     0.90800
C759        C  0.50659164  0.78195161  0.27082657     0.90800
C760        C  0.51257370  0.66411378  0.19734164     0.91000
O761        O  0.97136318  0.51584731  0.02356791    -0.71300
O762        O  0.04899105  0.51598109  0.56749953    -0.71400
O763        O  0.00858712  0.55865016  0.53701154    -0.71400
O764        O  0.00600030  0.47000047  0.06305912    -0.71500
O765        O  0.02108535  0.09247468  0.05756807    -0.71400
O766        O  0.00182054  0.98676877  0.45801313    -0.71400
O767        O  0.04684798  0.03353152  0.03567172    -0.73000
O768        O  0.97198595  0.93013260  0.46000130    -0.71400
Ni769      Ni  0.00956648  0.51507881  0.56923248     1.25400
Ni770      Ni  0.01022443  0.94063094  0.47120471     1.25400
C771        C  0.95388554  0.93484423  0.49311540     0.90800
C772        C  0.05802572  0.03742729  0.99379133     0.90800
C773        C  0.99026423  0.00618877  0.48924169     0.90800
C774        C  0.02227038  0.11450270  0.02345337     0.91000
O775        O  0.04646549  0.51132611  0.21813614    -0.71300
O776        O  0.96804864  0.50818943  0.23632868    -0.71400
O777        O  0.00895350  0.55144084  0.26400172    -0.71400
O778        O  0.00545015  0.46834869  0.19170483    -0.71500
O779        O  0.01624435  0.09098718  0.17889599    -0.71400
O780        O  0.99421443  0.02284775  0.27127515    -0.71400
O781        O  0.96752001  0.06529156  0.21508022    -0.71400
O782        O  0.04424905  0.04538084  0.23446294    -0.71400
Ni783      Ni  0.00705462  0.51087037  0.22520493     1.25400
Ni784      Ni  0.00582676  0.05483403  0.22251816     1.25400
C785        C  0.05869366  0.06234608  0.26504404     0.90800
C786        C  0.95459374  0.08269825  0.24703207     0.90800
C787        C  0.99110743  0.03334710  0.31486541     0.90800
C788        C  0.01906614  0.12192434  0.19325112     0.91000
C789        C  0.30892630  0.75327693  0.45795035     0.33100
C790        C  0.31193383  0.75486990  0.05517162     0.33100
C791        C  0.29176591  0.72444799  0.48122373    -0.03100
C792        C  0.33672823  0.75020198  0.48514099    -0.03900
C793        C  0.29612693  0.78559998  0.48055055    -0.03800
C794        C  0.29670763  0.72431075  0.03261118    -0.03100
C795        C  0.33989345  0.75429916  0.02789507    -0.03900
C796        C  0.29705700  0.78553943  0.03208211    -0.03800
C797        C  0.28584007  0.69386099  0.04882676    -0.29200
N798        N  0.27761061  0.67542575  0.00977253     0.17300
C799        C  0.28172269  0.69315779  0.46642400    -0.29200
H800        H  0.28169419  0.68333669  0.42977787     0.19300
C801        C  0.36773390  0.75128798  0.03857848    -0.28100
N802        N  0.38234509  0.74950313  0.99612886     0.16100
C803        C  0.36457403  0.74677471  0.47448328    -0.28100
C804        C  0.28443212  0.81526468  0.04729004    -0.28400
N805        N  0.27546470  0.83243538  0.00748925     0.16600
H806        H  0.28216269  0.82388942  0.08431710     0.19200
C807        C  0.28488572  0.81602000  0.46474142    -0.28400
H808        H  0.28254336  0.82410321  0.42749734     0.19200
H809        H  0.37361906  0.74613761  0.43864780     0.19200
H810        H  0.28494890  0.68520547  0.08601185     0.19300
H811        H  0.37635427  0.74966865  0.07461791     0.19200
C812        C  0.31040725  0.75386584  0.20690200     0.33100
C813        C  0.30987774  0.75344188  0.30595571     0.33100
C814        C  0.29528664  0.72352319  0.23063425    -0.03100
C815        C  0.33884836  0.75251263  0.23151085    -0.03900
C816        C  0.29656450  0.78490225  0.23118707    -0.03800
C817        C  0.29501113  0.72338911  0.28127526    -0.03100
C818        C  0.33859976  0.75222216  0.28205132    -0.03900
C819        C  0.29629182  0.78468097  0.28177120    -0.03800
C820        C  0.28351153  0.69280225  0.29574059    -0.29200
N821        N  0.27677793  0.67458651  0.25555921     0.17300
C822        C  0.28393893  0.69291958  0.21566516    -0.29200
H823        H  0.28203360  0.68408810  0.17867797     0.19300
C824        C  0.36465399  0.74240280  0.29675099    -0.28100
N825        N  0.38082102  0.73745841  0.25702678     0.16100
C826        C  0.36505062  0.74304508  0.21695470    -0.28100
C827        C  0.28260288  0.81388391  0.29650979    -0.28400
N828        N  0.27464918  0.83168843  0.25656595     0.16600
H829        H  0.27857343  0.82147800  0.33352699     0.19200
C830        C  0.28303230  0.81423731  0.21653793    -0.28400
H831        H  0.27940254  0.82214978  0.17953413     0.19200
H832        H  0.37143473  0.73847151  0.17997079     0.19200
H833        H  0.28122896  0.68389617  0.33263894     0.19300
H834        H  0.37100839  0.73754078  0.33370542     0.19200
C835        C  0.20563825  0.00277233  0.05533199     0.33100
C836        C  0.20053653  0.00097420  0.45584988     0.33100
C837        C  0.21811268  0.97141696  0.03075701    -0.03100
C838        C  0.17661444  0.00398118  0.03382157    -0.03900
C839        C  0.23008638  0.52982419  0.03518659    -0.03800
C840        C  0.21560455  0.97111623  0.48008002    -0.03100
C841        C  0.17203642  0.99951733  0.47967969    -0.03900
C842        C  0.22710089  0.52997639  0.48276718    -0.03800
C843        C  0.22934810  0.94227693  0.46505836    -0.29200
N844        N  0.23729732  0.92348391  0.00545418     0.17300
C845        C  0.23091274  0.94192219  0.04544753    -0.29200
H846        H  0.23522751  0.93437911  0.08238849     0.19300
C847        C  0.14562766  0.99358942  0.46391863    -0.28100
N848        N  0.14363459  0.50059314  0.99804235     0.16100
C849        C  0.15038712  0.00737844  0.05180158    -0.28100
C850        C  0.23890709  0.56017337  0.46777291    -0.28400
N851        N  0.24827365  0.57929912  0.01177327     0.16600
H852        H  0.24169734  0.56850986  0.43070999     0.19200
C853        C  0.24008717  0.56093252  0.05103067    -0.28400
H854        H  0.24001522  0.57022295  0.08793386     0.19200
H855        H  0.14928569  0.49920215  0.07634902     0.19200
H856        H  0.23287604  0.93440776  0.42798987     0.19300
H857        H  0.15085982  0.49688286  0.42688320     0.19200
C858        C  0.20014814  0.00186570  0.30443359     0.33100
C859        C  0.20277675  0.00193030  0.20586560     0.33100
C860        C  0.21207075  0.96923386  0.28091104    -0.03100
C861        C  0.17218155  0.00686290  0.27809740    -0.03900
C862        C  0.22692034  0.53066940  0.28250024    -0.03800
C863        C  0.21338557  0.96941199  0.23050445    -0.03100
C864        C  0.17369966  0.00647405  0.22759488    -0.03900
C865        C  0.22550577  0.53084602  0.23197554    -0.03800
C866        C  0.22645094  0.93971282  0.21626154    -0.29200
N867        N  0.23305400  0.92144310  0.25646509     0.17300
C868        C  0.22447166  0.93922430  0.29611521    -0.29200
H869        H  0.22766146  0.93137989  0.33326723     0.19300
C870        C  0.14813003  0.01591922  0.21022660    -0.28100
N871        N  0.14089079  0.49368178  0.26661128     0.16100
C872        C  0.14558481  0.01749081  0.28992247    -0.28100
C873        C  0.23676596  0.56137525  0.21660542    -0.28400
N874        N  0.24483647  0.57944452  0.25620582     0.16600
H875        H  0.23842096  0.57011234  0.17954884     0.19200
C876        C  0.23894718  0.56101868  0.29659518    -0.28400
H877        H  0.24262866  0.56936502  0.33341468     0.19200
H878        H  0.15337583  0.49316002  0.34185615     0.19200
H879        H  0.23144021  0.93240314  0.17947525     0.19300
H880        H  0.14679269  0.49448090  0.18832691     0.19200
C881        C  0.20020710  0.00121126  0.40209523    -0.10200
C882        C  0.19957654  0.00170904  0.35812352    -0.11700
C883        C  0.20615684  0.00295569  0.10876649    -0.10200
C884        C  0.20468922  0.00247191  0.15251413    -0.11700
C885        C  0.26574423  0.64125180  0.25543736    -0.10200
C886        C  0.25619305  0.61260517  0.25565742    -0.11700
C887        C  0.26001579  0.86300495  0.25669534    -0.10200
C888        C  0.24749927  0.88999832  0.25680968    -0.11700
C889        C  0.26700215  0.64199309  0.01134509    -0.10200
C890        C  0.25821722  0.61305877  0.01225599    -0.11700
C891        C  0.26201884  0.86420814  0.00720643    -0.10200
C892        C  0.25054782  0.89159289  0.00600955    -0.11700
C893        C  0.31006033  0.75293813  0.40404679    -0.10200
C894        C  0.30996943  0.75307518  0.35992399    -0.11700
C895        C  0.31262273  0.75470092  0.10901793    -0.10200
C896        C  0.31143134  0.75419245  0.15304385    -0.11700
C897        C  0.09275422  0.49862333  0.23989570    -0.13300
C898        C  0.11145801  0.48963064  0.27349015    -0.28500
H899        H  0.09929761  0.06442761  0.30333091     0.15700
H900        H  0.10419209  0.48086924  0.30861885     0.16300
C901        C  0.11422198  0.49761852  0.99089070    -0.13300
C902        C  0.09568003  0.50176819  0.02666847    -0.28500
H903        H  0.09483741  0.01244644  0.05675366     0.15700
H904        H  0.10202111  0.51495973  0.56860755     0.16300
C905        C  0.97279010  0.03166617  0.47001435    -0.15400
C906        C  0.96013737  0.03417729  0.43300410     0.08600
C907        C  0.96032788  0.02262079  0.38498303     0.10500
C908        C  0.97240132  0.01789226  0.34765337    -0.16300
C909        C  0.02638120  0.14776817  0.15896189    -0.15400
C910        C  0.03136693  0.16355825  0.12269861     0.08600
C911        C  0.03329635  0.16575799  0.07217656     0.10500
C912        C  0.02991105  0.14821894  0.03718140    -0.16300
C913        C  0.42658505  0.72819335  0.22043437    -0.13300
C914        C  0.40948331  0.72701233  0.25911323    -0.28500
H915        H  0.41866950  0.73615016  0.18548845     0.15700
H916        H  0.41803031  0.72054415  0.29431802     0.16300
C917        C  0.42987341  0.74618815  0.02610248    -0.13300
C918        C  0.41187787  0.74595507  0.98907960    -0.28500
H919        H  0.41869673  0.72202824  0.45818977     0.15700
H920        H  0.41979116  0.74433203  0.95228670     0.16300
C921        C  0.50523953  0.81445503  0.29366990    -0.15400
C922        C  0.50456932  0.83273910  0.32839779     0.08600
C923        C  0.50461794  0.83528647  0.37894279     0.10500
C924        C  0.50536879  0.82149873  0.41767794    -0.16300
C925        C  0.51685481  0.65085432  0.05446302    -0.15400
C926        C  0.51692602  0.62817457  0.08375881     0.08600
C927        C  0.51573203  0.61937252  0.13305103     0.10500
C928        C  0.51413145  0.63217281  0.17250490    -0.16300
C929        C  0.91017392  0.05568526  0.22252172    -0.13300
C930        C  0.92393127  0.07735207  0.25240422    -0.28500
H931        H  0.92084867  0.04660553  0.19040304     0.15700
H932        H  0.91864297  0.48153544  0.31221373     0.16300
C933        C  0.80854971  0.50037418  0.34842553    -0.10200
C934        C  0.80882210  0.50018153  0.39230468    -0.11700
C935        C  0.80822113  0.50010417  0.14226910    -0.10200
C936        C  0.80898204  0.49963653  0.09827896    -0.11700
C937        C  0.90554621  0.94711425  0.51217458    -0.13300
C938        C  0.92431063  0.93724244  0.47923644    -0.28500
H939        H  0.91165736  0.94769407  0.55008095     0.15700
H940        H  0.92480714  0.49752597  0.93777647     0.16300
C941        C  0.75408917  0.64117294  0.24360003    -0.10200
C942        C  0.76328451  0.61242204  0.24487614    -0.11700
C943        C  0.75984146  0.86495439  0.23697871    -0.10200
C944        C  0.77322904  0.89144822  0.23689454    -0.11700
C945        C  0.60982614  0.74180530  0.22186536    -0.13300
C946        C  0.59249813  0.72827862  0.25501010    -0.28500
H947        H  0.60147941  0.74925686  0.18690121     0.15700
H948        H  0.60063117  0.71953369  0.28945274     0.16300
C949        C  0.75546082  0.64081989  0.49164579    -0.10200
C950        C  0.76525564  0.61243861  0.49367542    -0.11700
C951        C  0.76098140  0.89496229  0.48404831    -0.10200
C952        C  0.75193869  0.86614918  0.48547590    -0.11700
C953        C  0.71042047  0.75264965  0.38392755    -0.10200
C954        C  0.70952215  0.75411218  0.33997680    -0.11700
C955        C  0.71354010  0.75239206  0.13400699    -0.10200
C956        C  0.71350694  0.75161538  0.09010587    -0.11700
C957        C  0.60893136  0.74264037  0.48141875    -0.13300
C958        C  0.59163915  0.75352166  0.51628141    -0.28500
H959        H  0.60416839  0.73986682  0.94345591     0.15700
H960        H  0.59981034  0.76660979  0.54783082     0.16300
C961        C  0.71554981  0.75120343  0.93778822     0.33100
C962        C  0.70977621  0.75250133  0.53674215     0.33100
C963        C  0.73058588  0.78114919  0.96251697    -0.03100
C964        C  0.68675607  0.75246134  0.96053488    -0.03900
C965        C  0.72833920  0.71999784  0.96259002    -0.03800
C966        C  0.72360218  0.78364527  0.51266900    -0.03100
C967        C  0.68149328  0.75134209  0.51160643    -0.03900
C968        C  0.72493265  0.72239639  0.51321261    -0.03800
C969        C  0.73441894  0.81471112  0.52693976    -0.29200
N970        N  0.74133117  0.83268821  0.48654429     0.17300
C971        C  0.74530551  0.80976065  0.94876777    -0.29200
H972        H  0.74968259  0.81781116  0.91205203     0.19300
C973        C  0.65414228  0.74908857  0.52525662    -0.28100
N974        N  0.63840207  0.74713014  0.48443566     0.16100
C975        C  0.66004913  0.75043579  0.94383488    -0.28100
C976        C  0.73648514  0.69236377  0.52910309    -0.28400
N977        N  0.74406750  0.67382017  0.48984097     0.16600
H978        H  0.73833177  0.68406303  0.56635014     0.19200
C979        C  0.73938115  0.68922719  0.94851865    -0.28400
H980        H  0.74228314  0.68035662  0.91173813     0.19200
H981        H  0.65367840  0.74873544  0.90635781     0.19200
H982        H  0.73634541  0.82394609  0.56373300     0.19300
H983        H  0.64642515  0.74780390  0.56200786     0.19200
C984        C  0.70926926  0.74876213  0.68828350     0.33100
C985        C  0.71129396  0.74935992  0.78707797     0.33100
C986        C  0.72561826  0.77822140  0.71125658    -0.03100
C987        C  0.68114741  0.75139460  0.71431775    -0.03900
C988        C  0.72224779  0.71695946  0.71214925    -0.03800
C989        C  0.72664856  0.77840306  0.76169572    -0.03100
C990        C  0.68223343  0.75165201  0.76482128    -0.03900
C991        C  0.72319560  0.71754178  0.76271615    -0.03800
C992        C  0.73853554  0.80872892  0.77573254    -0.29200
N993        N  0.74483218  0.82673492  0.73529501     0.17300
C994        C  0.73694538  0.80861655  0.69570873    -0.29200
H995        H  0.73806706  0.81761920  0.65870134     0.19300
C996        C  0.65562114  0.75615806  0.78141481    -0.28100
N997        N  0.63830089  0.75861382  0.74258565     0.16100
C998        C  0.65380005  0.75577683  0.70155097    -0.28100
C999        C  0.73424857  0.68710666  0.77800490    -0.28400
N1000       N  0.74005580  0.66797935  0.73841121     0.16600
H1001       H  0.73748317  0.67924506  0.81515588     0.19200
C1002       C  0.73288854  0.68577059  0.69795959    -0.28400
H1003       H  0.73490924  0.67654839  0.66118103     0.19200
H1004       H  0.64580664  0.75741689  0.66500514     0.19200
H1005       H  0.74108732  0.81779857  0.81250837     0.19300
H1006       H  0.64967549  0.75845788  0.81897854     0.19200
C1007       C  0.80906624  0.49978069  0.54459651     0.33100
C1008       C  0.81380649  0.49998262  0.94572243     0.33100
C1009       C  0.79543737  0.53102207  0.52067924    -0.03100
C1010       C  0.83752519  0.49888684  0.52017484    -0.03900
C1011       C  0.79003180  0.97693839  0.50977643    -0.03800
C1012       C  0.79705890  0.52895884  0.96855570    -0.03100
C1013       C  0.84155960  0.50247135  0.97272198    -0.03900
C1014       C  0.81129546  0.96514687  0.96363107    -0.03800
C1015       C  0.78516595  0.55875255  0.95271344    -0.29200
N1016       N  0.77638676  0.57638456  0.99205015     0.17300
C1017       C  0.78378543  0.56154406  0.53510809    -0.29200
H1018       H  0.78111823  0.57031585  0.57198488     0.19300
C1019       C  0.86917890  0.02500099  0.94599180    -0.28100
N1020       N  0.88382401  0.03561662  0.98528868     0.16100
C1021       C  0.86128883  0.97048796  0.53642818    -0.28100
C1022       C  0.80060808  0.93395555  0.95018807    -0.28400
N1023       N  0.79399548  0.91637911  0.99088269     0.16600
H1024       H  0.79633575  0.92553936  0.91358712     0.19200
C1025       C  0.77729818  0.94698781  0.52352903    -0.28400
H1026       H  0.77519010  0.93771904  0.56029224     0.19200
H1027       H  0.86498973  0.96713385  0.57467705     0.19200
H1028       H  0.78417381  0.56772050  0.91568176     0.19300
H1029       H  0.87545366  0.02859832  0.90868286     0.19200
C1030       C  0.81308196  0.49947735  0.79441021     0.33100
C1031       C  0.81282132  0.49953897  0.69559485     0.33100
C1032       C  0.79636719  0.52832172  0.77030773    -0.03100
C1033       C  0.84149224  0.50294436  0.77005610    -0.03900
C1034       C  0.79356248  0.97069431  0.76329616    -0.03800
C1035       C  0.79626065  0.52804094  0.71977308    -0.03100
C1036       C  0.84138280  0.50314912  0.71956347    -0.03900
C1037       C  0.79261112  0.97164799  0.71224919    -0.03800
C1038       C  0.78247165  0.55668456  0.70436754    -0.29200
N1039       N  0.77420283  0.57442875  0.74390756     0.17300
C1040       C  0.78254455  0.55753803  0.78442033    -0.29200
H1041       H  0.77976256  0.56651651  0.82116558     0.19300
C1042       C  0.86588513  0.96811847  0.69364565    -0.28100
N1043       N  0.88140776  0.95784796  0.73208024     0.16100
C1044       C  0.86725801  0.96557354  0.77336568    -0.28100
C1045       C  0.78115048  0.94117769  0.69723997    -0.28400
N1046       N  0.77446332  0.92248092  0.73668934     0.16600
H1047       H  0.78027201  0.93193190  0.66030518     0.19200
C1048       C  0.78267685  0.93952056  0.77687841    -0.28400
H1049       H  0.78315774  0.92872706  0.81295706     0.19200
H1050       H  0.87456995  0.96096630  0.80982200     0.19200
H1051       H  0.77970309  0.56479441  0.66721325     0.19300
H1052       H  0.87198468  0.96545559  0.65624080     0.19200
O1053       O  0.55110390  0.73033256  0.47909670    -0.71300
O1054       O  0.47239003  0.73898133  0.98011845    -0.71400
O1055       O  0.51100935  0.78707364  0.95929017    -0.71400
O1056       O  0.51375596  0.68618323  0.51674225    -0.71500
O1057       O  0.50813006  0.72128525  0.57962928    -0.71400
O1058       O  0.51155935  0.80327185  0.03682158    -0.71400
O1059       O  0.46687301  0.75424327  0.53244194    -0.71400
O1060       O  0.55283187  0.75846147  0.05281960    -0.71400
Ni1061     Ni  0.51247965  0.73982180  0.97429806     1.25400
Ni1062     Ni  0.51369080  0.75651731  0.05756356     1.25400
C1063       C  0.56574990  0.75112648  0.01390463     0.90800
C1064       C  0.45673042  0.73576167  0.49838417     0.90800
C1065       C  0.51080115  0.81039622  0.99159783     0.90800
C1066       C  0.51188289  0.69145297  0.56235860     0.91000
O1067       O  0.54928140  0.77821224  0.74908554    -0.71300
O1068       O  0.46926978  0.77654927  0.75217360    -0.71400
O1069       O  0.50904714  0.82202337  0.78068208    -0.71400
O1070       O  0.50977508  0.73395521  0.72107673    -0.71500
O1071       O  0.51141063  0.70840612  0.79330497    -0.71400
O1072       O  0.50980418  0.79615681  0.85266623    -0.71400
O1073       O  0.47076469  0.75103161  0.82424546    -0.71400
O1074       O  0.55008333  0.75374571  0.82196363    -0.71400
Ni1075     Ni  0.50925631  0.77865434  0.74813645     1.25400
Ni1076     Ni  0.51050804  0.75156404  0.82562327     1.25400
C1077       C  0.56278825  0.76546158  0.78478645     0.90800
C1078       C  0.45686261  0.76311272  0.78869147     0.90800
C1079       C  0.50932935  0.82323642  0.82698295     0.90800
C1080       C  0.51128720  0.70704687  0.74706451     0.91000
O1081       O  0.97019119  0.51252370  0.56676226    -0.71300
O1082       O  0.04918072  0.51278211  0.04946532    -0.71400
O1083       O  0.01453858  0.55919115  0.00987986    -0.71400
O1084       O  0.01066103  0.46978549  0.59505795    -0.71500
O1085       O  0.01773950  0.89473020  0.49061784    -0.71400
O1086       O  0.99604335  0.00210908  0.03395185    -0.71400
O1087       O  0.04725914  0.95317187  0.48672705    -0.73000
O1088       O  0.97111751  0.05985888  0.05462947    -0.71400
Ni1089     Ni  0.01001177  0.51523549  0.03909254     1.25400
Ni1090     Ni  0.00921592  0.04675603  0.04841890     1.25400
C1091       C  0.95633554  0.06546921  0.01694045     0.90800
C1092       C  0.05424151  0.96446070  0.52851362     0.90800
C1093       C  0.98951739  0.99540064  0.99026859     0.90800
C1094       C  0.01556863  0.88664066  0.53526749     0.91000
O1095       O  0.05095255  0.51219018  0.71753496    -0.71300
O1096       O  0.97281879  0.51376325  0.73567679    -0.71400
O1097       O  0.01463415  0.55862512  0.75176205    -0.71400
O1098       O  0.00945363  0.46737442  0.70342556    -0.71500
O1099       O  0.01612614  0.87918093  0.75379126    -0.71400
O1100       O  0.99676705  0.94588198  0.84577407    -0.71400
O1101       O  0.96699536  0.90495941  0.79041916    -0.71400
O1102       O  0.04550862  0.92419977  0.80833566    -0.71400
Ni1103     Ni  0.01175826  0.51367858  0.72448000     1.25400
Ni1104     Ni  0.00663221  0.91193285  0.80151880     1.25400
C1105       C  0.05614289  0.94908410  0.78421903     0.90800
C1106       C  0.95373062  0.92233827  0.75824899     0.90800
C1107       C  0.98534560  0.97300152  0.83085768     0.90800
C1108       C  0.02055189  0.88807531  0.71015173     0.91000
C1109       C  0.30867526  0.75450238  0.95653074     0.33100
C1110       C  0.30575812  0.75431590  0.55669938     0.33100
C1111       C  0.29504068  0.72406050  0.98213150    -0.03100
C1112       C  0.33790582  0.75422727  0.97751788    -0.03900
C1113       C  0.29549497  0.78516543  0.98165245    -0.03800
C1114       C  0.29018617  0.72502075  0.53184967    -0.03100
C1115       C  0.33473386  0.75093554  0.53549847    -0.03900
C1116       C  0.29461199  0.78593418  0.53099994    -0.03800
C1117       C  0.27921052  0.69422274  0.54637706    -0.29200
N1118       N  0.27391513  0.67526853  0.50629941     0.17300
C1119       C  0.28316796  0.69344784  0.96886330    -0.29200
H1120       H  0.27978426  0.68442434  0.93227942     0.19300
C1121       C  0.36085596  0.74834471  0.55417303    -0.28100
N1122       N  0.37900129  0.74575838  0.51701871     0.16100
C1123       C  0.36412443  0.75126953  0.95891041    -0.28100
C1124       C  0.28264859  0.81623157  0.54472385    -0.28400
N1125       N  0.27679276  0.83429915  0.50416023     0.16600
H1126       H  0.27825331  0.82438372  0.58139096     0.19200
C1127       C  0.28208331  0.81434499  0.96731448    -0.28400
H1128       H  0.27765455  0.82200267  0.93046200     0.19200
H1129       H  0.36954029  0.74968812  0.92094077     0.19200
H1130       H  0.27687754  0.68542080  0.58331629     0.19300
H1131       H  0.36637020  0.74868038  0.59214855     0.19200
C1132       C  0.30677231  0.75758963  0.70740712     0.33100
C1133       C  0.30736231  0.75746118  0.80599753     0.33100
C1134       C  0.29354011  0.72648984  0.73165470    -0.03100
C1135       C  0.33560230  0.75916098  0.73096693    -0.03900
C1136       C  0.29172099  0.78736337  0.73174969    -0.03800
C1137       C  0.29382358  0.72636804  0.78206768    -0.03100
C1138       C  0.33592287  0.75898904  0.78144066    -0.03900
C1139       C  0.29201937  0.78740468  0.78231893    -0.03800
C1140       C  0.28185681  0.69619934  0.79689647    -0.29200
N1141       N  0.27443115  0.67835120  0.75679523     0.17300
C1142       C  0.28141574  0.69649179  0.71680077    -0.29200
H1143       H  0.27852682  0.68807809  0.67979755     0.19300
C1144       C  0.36323371  0.76160317  0.79569479    -0.28100
N1145       N  0.37949463  0.76338050  0.75534869     0.16100
C1146       C  0.36268658  0.76212314  0.71581194    -0.28100
C1147       C  0.27912802  0.81691992  0.79719069    -0.28400
N1148       N  0.27116603  0.83441153  0.75711356     0.16600
H1149       H  0.27649015  0.82553508  0.83415481     0.19200
C1150       C  0.27867820  0.81671226  0.71702275    -0.28400
H1151       H  0.27564472  0.82510288  0.68005415     0.19200
H1152       H  0.36968085  0.76360304  0.67865612     0.19200
H1153       H  0.27937050  0.68750543  0.83386067     0.19300
H1154       H  0.37048756  0.76298180  0.83266865     0.19200
C1155       C  0.20001937  0.00086249  0.55493406     0.33100
C1156       C  0.20271488  0.00201647  0.95677819     0.33100
C1157       C  0.21540381  0.97095027  0.53075085    -0.03100
C1158       C  0.17156147  0.99931149  0.53018302    -0.03900
C1159       C  0.22619086  0.53052735  0.53327989    -0.03800
C1160       C  0.21668686  0.97084026  0.98024499    -0.03100
C1161       C  0.17487165  0.00387645  0.98353490    -0.03900
C1162       C  0.23214712  0.52996226  0.98468670    -0.03800
C1163       C  0.22878035  0.94072193  0.96540988    -0.29200
N1164       N  0.23748630  0.92473503  0.50492073     0.17300
C1165       C  0.22909979  0.94182305  0.54519805    -0.29200
H1166       H  0.23240674  0.93346550  0.58209931     0.19300
C1167       C  0.14727240  0.00778036  0.97204756    -0.28100
N1168       N  0.13989276  0.49837558  0.50291088     0.16100
C1169       C  0.14456553  0.99297117  0.54390089    -0.28100
C1170       C  0.24335727  0.56081248  0.97116456    -0.28400
N1171       N  0.24517977  0.57887666  0.50765054     0.16600
H1172       H  0.24627253  0.56989778  0.93447913     0.19200
C1173       C  0.23749060  0.56120913  0.54781456    -0.28400
H1174       H  0.23898956  0.57056091  0.58460748     0.19200
H1175       H  0.14738312  0.49887138  0.58080030     0.19200
H1176       H  0.23114846  0.93197367  0.92845925     0.19300
H1177       H  0.15626832  0.50001626  0.92293757     0.19200
C1178       C  0.19934782  0.00274846  0.80586736     0.33100
C1179       C  0.19890832  0.00305324  0.70689646     0.33100
C1180       C  0.21538591  0.97395043  0.78134526    -0.03100
C1181       C  0.17067918  0.99947381  0.78232582    -0.03900
C1182       C  0.23327095  0.53110575  0.78164642    -0.03800
C1183       C  0.21513790  0.97397688  0.73081844    -0.03100
C1184       C  0.17042943  0.99994193  0.73174039    -0.03900
C1185       C  0.23093060  0.53146973  0.73106279    -0.03800
C1186       C  0.22821912  0.94461005  0.71594051    -0.29200
N1187       N  0.23629272  0.92719346  0.75598866     0.17300
C1188       C  0.22859226  0.94474170  0.79606714    -0.29200
H1189       H  0.23137945  0.93617867  0.83300877     0.19300
C1190       C  0.14381725  0.99218840  0.71759028    -0.28100
N1191       N  0.14487934  0.50263163  0.76997419     0.16100
C1192       C  0.14434408  0.99064467  0.79752336    -0.28100
C1193       C  0.23919936  0.56346850  0.71598772    -0.28400
N1194       N  0.24678650  0.58178271  0.75560646     0.16600
H1195       H  0.23816186  0.57337509  0.67945008     0.19200
C1196       C  0.24300012  0.56253579  0.79580543    -0.28400
H1197       H  0.24543934  0.57148844  0.83266855     0.19200
H1198       H  0.15831187  0.50182576  0.84461012     0.19200
H1199       H  0.23069607  0.93589435  0.67899091     0.19300
H1200       H  0.14981370  0.50189554  0.69137601     0.19200
C1201       C  0.20105835  0.00193530  0.90329139    -0.10200
C1202       C  0.19995849  0.00229951  0.85943479    -0.11700
C1203       C  0.19950386  0.00133485  0.60886523    -0.10200
C1204       C  0.19897194  0.00242367  0.65294806    -0.11700
C1205       C  0.26369879  0.64506614  0.75640834    -0.10200
C1206       C  0.25544364  0.61598025  0.75570852    -0.11700
C1207       C  0.25890011  0.86681438  0.75685270    -0.10200
C1208       C  0.24853417  0.89479046  0.75624067    -0.11700
C1209       C  0.26423170  0.64140161  0.50652341    -0.10200
C1210       C  0.25565303  0.61237853  0.50711495    -0.11700
C1211       C  0.26346618  0.86618998  0.50360985    -0.10200
C1212       C  0.25160693  0.89337008  0.50427216    -0.11700
C1213       C  0.30744511  0.75508690  0.90315281    -0.10200
C1214       C  0.30739688  0.75666132  0.85939640    -0.11700
C1215       C  0.30501061  0.75544310  0.61017785    -0.10200
C1216       C  0.30591499  0.75696512  0.65395228    -0.11700
C1217       C  0.09686465  0.50290822  0.74263417    -0.13300
C1218       C  0.11552392  0.50007814  0.77826092    -0.28500
H1219       H  0.09745181  0.94813412  0.82014469     0.15700
H1220       H  0.10832736  0.49662262  0.81527158     0.16300
C1221       C  0.11019021  0.49620960  0.49877320    -0.13300
C1222       C  0.09326879  0.50534990  0.53509122    -0.28500
H1223       H  0.09256989  0.97536537  0.46228585     0.15700
H1224       H  0.10254773  0.50778611  0.06308598     0.16300
C1225       C  0.96942240  0.97013478  0.97900873    -0.15400
C1226       C  0.95343465  0.96713289  0.94611387     0.08600
C1227       C  0.95145864  0.97898410  0.89821227     0.10500
C1228       C  0.96401186  0.98532527  0.86168216    -0.16300
C1229       C  0.02828146  0.86254255  0.67574267    -0.15400
C1230       C  0.03164054  0.84560035  0.63996114     0.08600
C1231       C  0.03014564  0.84006270  0.58985945     0.10500
C1232       C  0.02414979  0.85427023  0.55293917    -0.16300
C1233       C  0.42610544  0.76107178  0.79105551    -0.13300
C1234       C  0.40932329  0.76704409  0.75289447    -0.28500
H1235       H  0.41716900  0.75292011  0.82518911     0.15700
H1236       H  0.41855222  0.77358998  0.71822978     0.16300
C1237       C  0.42640264  0.73357156  0.49128587    -0.13300
C1238       C  0.40850812  0.74575314  0.52416781    -0.28500
H1239       H  0.42217097  0.74871259  0.06279510     0.15700
H1240       H  0.41642396  0.75546877  0.55834780     0.16300
C1241       C  0.50913992  0.85489797  0.85278690    -0.15400
C1242       C  0.50917536  0.86941951  0.89116711     0.08600
C1243       C  0.50943112  0.86500822  0.94173551     0.10500
C1244       C  0.50989274  0.84486101  0.97457304    -0.16300
C1245       C  0.51439396  0.66423365  0.59648445    -0.15400
C1246       C  0.51562945  0.65270996  0.63675311     0.08600
C1247       C  0.51513095  0.65717924  0.68721869     0.10500
C1248       C  0.51340100  0.67520826  0.72224748    -0.16300
C1249       C  0.90968125  0.94616468  0.72745602    -0.13300
C1250       C  0.92288292  0.92568348  0.75964775    -0.28500
H1251       H  0.92113036  0.95541680  0.69624355     0.15700
H1252       H  0.92289051  0.49464178  0.81489941     0.16300
C1253       C  0.81382042  0.49965936  0.84809111    -0.10200
C1254       C  0.81466488  0.49998871  0.89204148    -0.11700
C1255       C  0.81193455  0.49959907  0.64199575    -0.10200
C1256       C  0.81012150  0.49964754  0.59818160    -0.11700
C1257       C  0.91107499  0.05070510  0.98194287    -0.13300
C1258       C  0.92590126  0.06133448  0.02063218    -0.28500
H1259       H  0.92097506  0.05050878  0.94658359     0.15700
H1260       H  0.91734266  0.50585133  0.56660744     0.16300
C1261       C  0.75144734  0.63495311  0.73990889    -0.10200
C1262       C  0.76164152  0.60678989  0.74231485    -0.11700
C1263       C  0.75542752  0.86009619  0.73499236    -0.10200
C1264       C  0.76432899  0.88890048  0.73565478    -0.11700
C1265       C  0.60867191  0.76414512  0.74302516    -0.13300
C1266       C  0.59343924  0.76318812  0.78402570    -0.28500
H1267       H  0.59821786  0.76783721  0.70860163     0.15700
H1268       H  0.60340339  0.75789396  0.81834531     0.16300
C1269       C  0.75594409  0.63785818  0.98994136    -0.10200
C1270       C  0.76521903  0.60933738  0.99096086    -0.11700
C1271       C  0.78021591  0.88471001  0.99154326    -0.10200
C1272       C  0.76796792  0.85773130  0.99074428    -0.11700
C1273       C  0.71521319  0.75073961  0.88425521    -0.10200
C1274       C  0.71314233  0.75000609  0.84053057    -0.11700
C1275       C  0.70859141  0.74964362  0.63449368    -0.10200
C1276       C  0.70897300  0.75161814  0.59053814    -0.11700
C1277       C  0.61304471  0.74669356  0.97830034    -0.13300
C1278       C  0.59623392  0.75331710  0.01576517    -0.28500
H1279       H  0.60047874  0.73144325  0.44858320     0.15700
H1280       H  0.60510087  0.76128418  0.05003273     0.16300
loop_ 
_geom_bond_atom_site_label_1 
_geom_bond_atom_site_label_2 
_geom_bond_distance 
_geom_bond_site_symmetry_2 
_ccdc_geom_bond_type 
C1            C3   1.545       .  S
C1            C5   1.544       .  S
C1            C4   1.542       .  S
C1          C313   1.485       .  S
C2            C6   1.530       .  S
C2            C8   1.535       .  S
C2            C7   1.532       .  S
C2          C316   1.481       .  S
C3           C11   1.385       .  A
C3          C326   1.396       .  A
C4           C15   1.384       .  A
C4          C327   1.395       .  A
C5           C19   1.385       .  A
C5          C328   1.395       .  A
C6            C9   1.374       .  A
C6          C323   1.398   1_554  A
C7           C13   1.374       .  A
C7          C324   1.393   1_554  A
C8           C16   1.378       .  A
C8          C325   1.397   1_554  A
C9           N10   1.355   1_554  A
C9           H22   1.083       .  S
N10         C331   1.360       .  A
N10         C632   1.405       .  S
C11         N330   1.362       .  A
C11          H12   1.082       .  S
C13          N14   1.356   1_554  A
C13          H23   1.078       .  S
N14         C335   1.365       .  A
N14         C637   1.444       .  S
C15         N334   1.365       .  A
C15          H21   1.082       .  S
C16          N17   1.358   1_554  A
C16          H18   1.083       .  S
N17         C339   1.357       .  A
N17         C629   1.406       .  S
C19         N337   1.361       .  A
C19          H20   1.082       .  S
C24          C26   1.536       .  S
C24          C28   1.535       .  S
C24          C27   1.533       .  S
C24         C315   1.481       .  S
C25          C29   1.536       .  S
C25          C31   1.538       .  S
C25          C30   1.541       .  S
C25         C314   1.485       .  S
C26          C34   1.380       .  A
C26          C29   1.398       .  A
C27          C38   1.373       .  A
C27          C30   1.395       .  A
C28          C42   1.379       .  A
C28          C31   1.396       .  A
C29          C32   1.379       .  A
C30          C36   1.381       .  A
C31          C39   1.380       .  A
C32          N33   1.356       .  A
C32          H45   1.082       .  S
N33          C34   1.358       .  A
N33         C303   1.406       .  S
C34          H35   1.083       .  S
C36          N37   1.366       .  A
C36          H46   1.081       .  S
N37          C38   1.356       .  A
N37         C305   1.444       .  S
C38          H44   1.079       .  S
C39          N40   1.358       .  A
C39          H41   1.082       .  S
N40          C42   1.358       .  A
N40         C301   1.408       .  S
C42          H43   1.083       .  S
C47          C49   1.537       .  S
C47          C50   1.541       .  S
C47         C691   1.539   1_545  S
C47         C296   1.481       .  S
C48          C52   1.542   1_565  S
C48          C53   1.547       .  S
C48         C694   1.550       .  S
C48         C294   1.492       .  S
C49          C57   1.380       .  A
C49         C372   1.407   1_554  A
C50         C701   1.385       .  A
C50         C373   1.394   1_554  A
C51         C687   1.538       .  S
C51          C65   1.380       .  A
C51         C374   1.396   1_554  A
C52          C55   1.384       .  A
C52         C369   1.396       .  A
C53         C370   1.391       .  A
C53         C699   1.394       .  A
C54         C688   1.534       .  S
C54          C62   1.377       .  A
C54         C371   1.396       .  A
C55          N56   1.358       .  A
C55          H68   1.083       .  S
N56         C377   1.359       .  A
N56         C310   1.412       .  S
C57         N376   1.353   1_554  A
C57          H58   1.083       .  S
C59         C693   1.378       .  A
C59          N60   1.360       .  A
C59          H69   1.082       .  S
N60         C381   1.364       .  A
N60         C297   1.446       .  S
C61         C690   1.373       .  A
C61         N380   1.358       .  A
C61          H67   1.082       .  S
C62          N63   1.356       .  A
C62          H64   1.082       .  S
N63         C385   1.361       .  A
N63         C311   1.410       .  S
C65         N383   1.359   1_554  A
C65          H66   1.083       .  S
C70          C72   1.546       .  S
C70          C73   1.554       .  S
C70         C714   1.552   1_545  S
C70         C293   1.492       .  S
C71          C75   1.537       .  S
C71          C76   1.534       .  S
C71         C717   1.539   1_545  S
C71         C295   1.482       .  S
C72          C80   1.385       .  A
C72          C75   1.408       .  A
C73          C76   1.389       .  A
C73         C724   1.401       .  A
C74         C710   1.538       .  S
C74          C88   1.381       .  A
C74          C77   1.396       .  A
C75          C78   1.381       .  A
C76         C722   1.377       .  A
C77         C711   1.536       .  S
C77          C85   1.378       .  A
C78          N79   1.353       .  A
C78          H91   1.083       .  S
N79          C80   1.356       .  A
N79         C302   1.408       .  S
C80          H81   1.082       .  S
C82         C716   1.376       .  A
C82          N83   1.360       .  A
C82          H92   1.082       .  S
N83          C84   1.363       .  A
N83         C289   1.445       .  S
C84         C713   1.385       .  A
C84          H90   1.082       .  S
C85          N86   1.357       .  A
C85          H87   1.083       .  S
N86          C88   1.358       .  A
N86         C304   1.407       .  S
C88          H89   1.082       .  S
O93        Ni421   1.910       .  S
O93         C423   1.278       .  A
O94        Ni101   1.908       .  S
O94         C424   1.278       .  A
O95        Ni101   1.916       .  S
O95         C105   1.282       .  A
O96        Ni421   1.930       .  S
O96         C106   1.281   1_556  A
O97        Ni422   1.898       .  S
O97         C106   1.277       .  A
O98        Ni102   1.912       .  S
O98         C105   1.275       .  A
O99        Ni422   1.934       .  S
O99         C104   1.286   1_554  A
O100       Ni102   1.947       .  S
O100        C103   1.288       .  A
Ni101       O413   1.911       .  S
Ni101       O416   1.928       .  S
Ni101      Ni102   2.391       .  S
Ni102       O417   1.902       .  S
Ni102       O419   1.946       .  S
C103        O413   1.278       .  A
C103        C318   1.488       .  S
C104        O414   1.278       .  A
C104        C277   1.477       .  S
C105        C284   1.430       .  S
C106        C285   1.432       .  S
O107       Ni115   1.932       .  S
O107        C117   1.286       .  A
O108       Ni115   1.930       .  S
O108        C118   1.284       .  A
O109       Ni115   1.914       .  S
O109        C119   1.276       .  A
O110       Ni115   1.907       .  S
O110        C120   1.279       .  A
O111       Ni116   1.925       .  S
O111        C120   1.280       .  A
O112       Ni116   1.913       .  S
O112        C119   1.282       .  A
O113       Ni116   1.906       .  S
O113        C118   1.279       .  A
O114       Ni116   1.910       .  S
O114        C117   1.278       .  A
Ni115      Ni116   2.392       .  S
C117        C306   1.478       .  S
C118        C273   1.478       .  S
C119        C281   1.430       .  S
C120        C288   1.434       .  S
O121       Ni449   1.924   1_655  S
O121       C1091   1.284   1_556  A
O122       Ni129   1.931   1_455  S
O122       C1092   1.283       .  A
O123       Ni129   1.900       .  S
O123        C773   1.272   1_565  A
O124       Ni449   1.914       .  S
O124        C774   1.276   1_556  A
O125       Ni450   1.921       .  S
O125        C134   1.278   1_556  A
O126       Ni130   1.893       .  S
O126        C133   1.277       .  A
O127       Ni450   1.923       .  S
O127        C132   1.284   1_556  A
O128       Ni130   1.936   1_655  S
O128        C131   1.286       .  A
Ni129       O441   1.921       .  S
Ni129       O444   1.896   1_655  S
Ni129      Ni770   2.393   1_655  S
Ni130       O445   1.906       .  S
Ni130       O447   1.938       .  S
Ni130      Ni769   2.392       .  S
C131       O1081   1.279       .  A
C131        C298   1.480       .  S
C132       O1082   1.281       .  A
C132        C902   1.481       .  S
C133        O763   1.281       .  A
C133        C265   1.430       .  S
C134        O764   1.280       .  A
C134        C272   1.430       .  S
O135       Ni143   1.950       .  S
O135        C785   1.289       .  A
O136       Ni143   1.960   1_655  S
O136        C786   1.291       .  A
O137       Ni143   1.868       .  S
O137        C787   1.271   1_455  A
O138       Ni143   1.901       .  S
O138        C788   1.272       .  A
O139       Ni144   1.920       .  S
O139        C148   1.278       .  A
O140       Ni144   1.914       .  S
O140        C147   1.280       .  A
O141       Ni144   1.937   1_655  S
O141        C146   1.285       .  A
O142       Ni144   1.938       .  S
O142        C145   1.286       .  A
Ni143      Ni784   2.386       .  S
Ni144      Ni783   2.390       .  S
C145        O775   1.280       .  A
C145        C897   1.488       .  S
C146        O776   1.281       .  A
C146        C290   1.489       .  S
C147        O777   1.279       .  A
C147        C268   1.436       .  S
C148        O778   1.280       .  A
C148        C269   1.432       .  S
C149        C151   1.542       .  S
C149        C153   1.543       .  S
C149        C152   1.540       .  S
C149        C253   1.482       .  S
C150        C154   1.535       .  S
C150        C156   1.534       .  S
C150        C155   1.534       .  S
C150        C255   1.482       .  S
C151        C159   1.383       .  A
C151        C474   1.395       .  A
C152        C163   1.381       .  A
C152        C475   1.391       .  A
C153        C167   1.382       .  A
C153        C476   1.396       .  A
C154        C157   1.378       .  A
C154        C471   1.397   1_554  A
C155        C161   1.377       .  A
C155        C472   1.395   1_554  A
C156        C164   1.378       .  A
C156        C473   1.397   1_554  A
C157        N158   1.357       .  A
C157        H170   1.083       .  S
N158        C479   1.358   1_554  A
N158        C249   1.407       .  S
C159        N478   1.360       .  A
C159        H160   1.082       .  S
C161        N162   1.358       .  A
C161        H171   1.082       .  S
N162        C483   1.365   1_554  A
N162        C278   1.444       .  S
C163        N482   1.366       .  A
C163        H169   1.081       .  S
C164        N165   1.357       .  A
C164        H166   1.082       .  S
N165        C487   1.360   1_554  A
N165        C251   1.409       .  S
C167        N485   1.360       .  A
C167        H168   1.082       .  S
C172        C174   1.539       .  S
C172        C176   1.538       .  S
C172        C175   1.534       .  S
C172        C256   1.482       .  S
C173        C177   1.536       .  S
C173        C179   1.536       .  S
C173        C178   1.536       .  S
C173        C254   1.483       .  S
C174        C182   1.381       .  A
C174        C177   1.396       .  A
C175        C186   1.377       .  A
C175        C178   1.395       .  A
C176        C190   1.380       .  A
C176        C179   1.397       .  A
C177        C180   1.379       .  A
C178        C184   1.375       .  A
C179        C187   1.379       .  A
C180        N181   1.357       .  A
C180        H193   1.082       .  S
N181        C182   1.359       .  A
N181        C245   1.409       .  S
C182        H183   1.083       .  S
C184        N185   1.360       .  A
C184        H194   1.083       .  S
N185        C186   1.361       .  A
N185        C274   1.440       .  S
C186        H192   1.081       .  S
C187        N188   1.358       .  A
C187        H189   1.083       .  S
N188        C190   1.358       .  A
N188        C247   1.408       .  S
C190        H191   1.082       .  S
C195        C197   1.545       .  S
C195        C198   1.538       .  S
C195        C839   1.545       .  S
C195        C243   1.486       .  S
C196        C200   1.531       .  S
C196        C201   1.535       .  S
C196        C842   1.534       .  S
C196        C241   1.479       .  S
C197        C205   1.384       .  A
C197        C520   1.396   1_554  A
C198        C209   1.383       .  A
C198        C521   1.394   1_554  A
C199        C835   1.536       .  S
C199        C213   1.379       .  A
C199        C522   1.396   1_554  A
C200        C203   1.377       .  A
C200        C517   1.396       .  A
C201        C207   1.376       .  A
C201        C518   1.395       .  A
C202        C836   1.533       .  S
C202        C210   1.378       .  A
C202        C519   1.397       .  A
C203        N524   1.355       .  A
C203        H216   1.083       .  S
N204        C205   1.361       .  A
N204        C523   1.356   1_554  A
N204        C252   1.409       .  S
C205        H206   1.082       .  S
C207       N1168   1.358       .  A
C207        H857   1.080       .  S
N208       C1167   1.366   1_554  A
N208        C849   1.355       .  A
N208        C261   1.442       .  S
C209        N848   1.364   1_554  A
C209        H855   1.082       .  S
C210        N531   1.357       .  A
C210        H212   1.082       .  S
N211        C213   1.358       .  A
N211        C530   1.358   1_554  A
N211        C250   1.407       .  S
C213        H214   1.083       .  S
H215        C849   1.080       .  S
H217        C847   1.083       .  S
C218        C220   1.534       .  S
C218        C221   1.531       .  S
C218        C862   1.537       .  S
C218        C242   1.479       .  S
C219        C223   1.542       .  S
C219        C224   1.547       .  S
C219        C865   1.543       .  S
C219        C244   1.486       .  S
C220        C228   1.379       .  A
C220        C223   1.396       .  A
C221        C232   1.373       .  A
C221        C224   1.393       .  A
C222        C858   1.540       .  S
C222        C236   1.383       .  A
C222        C225   1.393       .  A
C223        C226   1.382       .  A
C224        C230   1.389       .  A
C225        C859   1.532       .  S
C225        C233   1.379       .  A
C226        N227   1.359       .  A
C226        H239   1.082       .  S
N227        C228   1.358       .  A
N227        C248   1.409       .  S
C228        H229   1.083       .  S
C230        N871   1.368       .  A
C230        H880   1.082       .  S
N231        C870   1.360       .  A
N231        C872   1.367       .  A
N231        C258   1.454       .  S
C232        N871   1.356       .  A
C232        H878   1.080       .  S
C233        N234   1.356       .  A
C233        H235   1.083       .  S
N234        C236   1.360       .  A
N234        C246   1.409       .  S
C236        H237   1.082       .  S
H238        C872   1.082       .  S
H240        C870   1.080       .  S
C241        C242   1.212       .  T
C243        C244   1.216       .  T
C245        C246   1.212       .  T
C247        C248   1.212       .  T
C249        C250   1.211       .  T
C251        C252   1.212       .  T
C253        C254   1.214       .  T
C255        C256   1.213       .  T
C257        C785   1.503       .  S
C257        C258   1.356       .  D
C257        H899   1.086       .  S
C258        H260   1.087       .  S
H259        C897   1.085       .  S
C261        C262   1.343   1_554  D
C261        H903   1.087       .  S
C262        C772   1.480       .  S
C262        H584   1.085       .  S
H263        C901   1.088       .  S
H264        C582   1.085       .  S
C265        C266   1.202       .  T
C266        C267   1.408       .  S
C267        C268   1.205       .  T
C269        C270   1.202       .  T
C270        C271   1.404       .  S
C271        C272   1.201       .  T
C273        C274   1.349       .  D
C273        H275   1.084       .  S
C274        H276   1.087       .  S
C277        C278   1.343   1_556  D
C277        H599   1.085       .  S
C278        H280   1.087       .  S
H279        C597   1.085       .  S
C281        C282   1.200       .  T
C282        C283   1.399       .  S
C283        C284   1.200       .  T
C285        C286   1.203       .  T
C286        C287   1.407       .  S
C287        C288   1.204       .  T
C289        C290   1.351       .  D
C289        H291   1.087       .  S
C290        H932   1.085       .  S
H292        C930   1.086       .  S
C293        C294   1.220   1_545  T
C295        C296   1.213       .  T
C297        C298   1.346       .  D
C297        H299   1.087       .  S
C298       H1260   1.084       .  S
H300       C1258   1.084       .  S
C301        C302   1.211       .  T
C303        C304   1.210       .  T
C305        C306   1.342       .  D
C305        H307   1.087       .  S
C306        H308   1.085       .  S
C309        N337   1.411       .  S
C309        C310   1.214       .  T
C311        C312   1.213       .  T
C312        N330   1.409       .  S
C313        C314   1.216       .  T
C315        C316   1.213       .  T
C317        N334   1.450       .  S
C317        C318   1.346       .  D
C317        H639   1.087       .  S
C318        H320   1.085       .  S
H319        C637   1.087   1_554  S
C321        C323   1.543       .  S
C321        C325   1.539       .  S
C321        C324   1.539       .  S
C321        C633   1.486       .  S
C322        C326   1.530       .  S
C322        C328   1.533       .  S
C322        C327   1.540       .  S
C322        C636   1.481       .  S
C323        C331   1.382       .  A
C324        C335   1.381       .  A
C325        C339   1.379       .  A
C326        C329   1.376       .  A
C327        C333   1.379       .  A
C328        C336   1.378       .  A
C329        N330   1.355       .  A
C329        H342   1.083       .  S
C331        H332   1.082       .  S
C333        N334   1.359       .  A
C333        H343   1.078       .  S
C335        H341   1.082       .  S
C336        N337   1.357       .  A
C336        H338   1.083       .  S
C339        H340   1.082       .  S
C344        C346   1.540       .  S
C344        C348   1.539       .  S
C344        C347   1.529       .  S
C344        C635   1.481       .  S
C345        C349   1.541       .  S
C345        C351   1.546       .  S
C345        C350   1.548       .  S
C345        C634   1.485       .  S
C346        C354   1.384       .  A
C346        C349   1.395       .  A
C347        C358   1.370       .  A
C347        C350   1.392       .  A
C348        C362   1.383       .  A
C348        C351   1.397       .  A
C349        C352   1.381       .  A
C350        C356   1.392       .  A
C351        C359   1.386       .  A
C352        N353   1.358       .  A
C352        H365   1.082       .  S
N353        C354   1.361       .  A
N353        C623   1.413       .  S
C354        H355   1.082       .  S
C356        N357   1.369       .  A
C356        H366   1.082       .  S
N357        C358   1.354       .  A
N357        C625   1.449       .  S
C358        H364   1.078       .  S
C359        N360   1.361       .  A
C359        H361   1.081       .  S
N360        C362   1.360       .  A
N360        C621   1.415       .  S
C362        H363   1.083       .  S
C367        C369   1.535   1_565  S
C367       C1011   1.537       .  S
C367        C370   1.524       .  S
C367        C616   1.489       .  S
C368        C372   1.540   1_565  S
C368       C1014   1.533       .  S
C368        C373   1.538   1_565  S
C368        C614   1.482       .  S
C369        C377   1.382       .  A
C370       C1021   1.363       .  A
C371       C1007   1.544       .  S
C371        C385   1.385       .  A
C372        C375   1.383       .  A
C373       C1019   1.378       .  A
C374       C1008   1.533       .  S
C374        C382   1.376       .  A
C375        N376   1.355       .  A
C375        H388   1.082       .  S
N376        C630   1.406       .  S
C377        H378   1.083       .  S
C379       C1013   1.383       .  A
C379        N380   1.365   1_556  A
C379        H389   1.082       .  S
N380        C617   1.444       .  S
C381       C1010   1.378       .  A
C381        H387   1.081       .  S
C382        N383   1.355       .  A
C382        H384   1.082       .  S
N383        C631   1.405       .  S
C385        H386   1.082       .  S
C390        C392   1.541   1_565  S
C390       C1034   1.542       .  S
C390        C393   1.543       .  S
C390        C613   1.482       .  S
C391        C395   1.534   1_565  S
C391       C1037   1.539       .  S
C391        C396   1.547       .  S
C391        C615   1.488       .  S
C392        C400   1.387       .  A
C392        C395   1.391       .  A
C393       C1044   1.391       .  A
C393        C396   1.394       .  A
C394       C1030   1.546       .  S
C394        C408   1.386       .  A
C394        C397   1.395       .  A
C395        C398   1.384       .  A
C396       C1042   1.381       .  A
C397       C1031   1.534       .  S
C397        C405   1.379       .  A
C398        N399   1.358       .  A
C398        H411   1.083       .  S
N399        C400   1.359       .  A
N399        C622   1.415       .  S
C400        H401   1.082       .  S
C402       C1036   1.379       .  A
C402        N403   1.362       .  A
C402        H412   1.083       .  S
N403        C404   1.362       .  A
N403        C609   1.446       .  S
C404       C1033   1.382       .  A
C404        H410   1.082       .  S
C405        N406   1.357       .  A
C405        H407   1.083       .  S
N406        C408   1.362       .  A
N406        C624   1.413       .  S
C408        H409   1.082       .  S
O414       Ni421   1.907       .  S
O415       Ni421   1.920       .  S
O415        C425   1.284       .  A
O416        C426   1.281       .  A
O417        C426   1.278       .  A
O418       Ni422   1.906   1_556  S
O418        C425   1.274       .  A
O419        C424   1.288       .  A
O420       Ni422   1.936       .  S
O420        C423   1.286   1_554  A
Ni421      Ni422   2.392   1_556  S
C423        C638   1.480       .  S
C424        C597   1.483       .  S
C425        C604   1.429       .  S
C426        C605   1.434       .  S
O427       Ni435   1.946       .  S
O427        C437   1.289       .  A
O428       Ni435   1.946       .  S
O428        C438   1.287       .  A
O429       Ni435   1.908       .  S
O429        C439   1.274       .  A
O430       Ni435   1.900       .  S
O430        C440   1.277       .  A
O431       Ni436   1.928       .  S
O431        C440   1.281       .  A
O432       Ni436   1.913       .  S
O432        C439   1.283       .  A
O433       Ni436   1.906       .  S
O433        C438   1.279       .  A
O434       Ni436   1.913       .  S
O434        C437   1.278       .  A
Ni435      Ni436   2.391       .  S
C437        C626   1.489       .  S
C438        C593   1.490       .  S
C439        C601   1.426       .  S
C440        C608   1.433       .  S
O441        C771   1.285       .  A
O442       Ni449   1.913       .  S
O442        C772   1.279       .  A
O443       Ni449   1.890   1_655  S
O443       C1093   1.280   1_545  A
O444       C1094   1.279       .  A
O445        C454   1.274       .  A
O446       Ni450   1.909       .  S
O446        C453   1.281       .  A
O447        C452   1.286       .  A
O448       Ni450   1.925   1_655  S
O448        C451   1.282       .  A
Ni449     Ni1090   2.391   1_556  S
Ni450     Ni1089   2.392   1_556  S
C451        O761   1.283   1_556  A
C451        C618   1.483       .  S
C452        O762   1.278       .  A
C452       C1222   1.482       .  S
C453       O1083   1.277   1_556  A
C453        C585   1.432       .  S
C454       O1084   1.283       .  A
C454        C592   1.429       .  S
O455       Ni463   1.915       .  S
O455       C1105   1.280       .  A
O456       Ni463   1.899   1_655  S
O456       C1106   1.277       .  A
O457       Ni463   1.932   1_655  S
O457       C1107   1.282       .  A
O458       Ni463   1.929       .  S
O458       C1108   1.286       .  A
O459       Ni464   1.912       .  S
O459        C468   1.275       .  A
O460       Ni464   1.902       .  S
O460        C467   1.279       .  A
O461       Ni464   1.939   1_655  S
O461        C466   1.286       .  A
O462       Ni464   1.936       .  S
O462        C465   1.287       .  A
Ni463     Ni1104   2.385       .  S
Ni464     Ni1103   2.391       .  S
C465       O1095   1.277       .  A
C465       C1217   1.480       .  S
C466       O1096   1.280       .  A
C466        C610   1.488       .  S
C467       O1097   1.279       .  A
C467        C588   1.432       .  S
C468       O1098   1.282       .  A
C468        C589   1.429       .  S
C469        C471   1.538       .  S
C469        C473   1.542       .  S
C469        C472   1.539       .  S
C469        C573   1.487       .  S
C470        C474   1.533       .  S
C470        C476   1.532       .  S
C470        C475   1.533       .  S
C470        C575   1.472       .  S
C471        C479   1.380       .  A
C472        C483   1.378       .  A
C473        C487   1.382       .  A
C474        C477   1.378       .  A
C475        C481   1.378       .  A
C476        C484   1.377       .  A
C477        N478   1.357       .  A
C477        H490   1.083       .  S
N478        C569   1.409       .  S
C479        H480   1.082       .  S
C481        N482   1.359       .  A
C481        H491   1.081       .  S
N482        C598   1.449       .  S
C483        H489   1.082       .  S
C484        N485   1.356       .  A
C484        H486   1.082       .  S
N485        C571   1.407       .  S
C487        H488   1.082       .  S
C492        C494   1.535       .  S
C492        C496   1.533       .  S
C492        C495   1.534       .  S
C492        C576   1.472       .  S
C493        C497   1.544       .  S
C493        C499   1.542       .  S
C493        C498   1.542       .  S
C493        C574   1.487       .  S
C494        C502   1.380       .  A
C494        C497   1.395       .  A
C495        C506   1.383       .  A
C495        C498   1.394       .  A
C496        C510   1.379       .  A
C496        C499   1.395       .  A
C497        C500   1.385       .  A
C498        C504   1.378       .  A
C499        C507   1.383       .  A
C500        N501   1.361       .  A
C500        H513   1.082       .  S
N501        C502   1.358       .  A
N501        C565   1.413       .  S
C502        H503   1.082       .  S
C504        N505   1.362       .  A
C504        H514   1.083       .  S
N505        C506   1.361       .  A
N505        C594   1.445       .  S
C506        H512   1.081       .  S
C507        N508   1.360       .  A
C507        H509   1.082       .  S
N508        C510   1.356       .  A
N508        C567   1.409       .  S
C510        H511   1.082       .  S
C515        C517   1.542       .  S
C515       C1159   1.541       .  S
C515        C518   1.542       .  S
C515        C563   1.486       .  S
C516        C520   1.531       .  S
C516       C1162   1.532       .  S
C516        C521   1.533       .  S
C516        C561   1.480       .  S
C517        C525   1.383       .  A
C518        C529   1.382       .  A
C519       C1155   1.542       .  S
C519        C533   1.382       .  A
C520        C523   1.377       .  A
C521        C527   1.370       .  A
C522       C1156   1.539       .  S
C522        C530   1.380       .  A
C523        H536   1.083       .  S
N524        C525   1.360       .  A
N524        C572   1.407       .  S
C525        H526   1.082       .  S
C527        N848   1.355       .  A
C527       H1177   1.083       .  S
N528        C847   1.357       .  A
N528       C1169   1.364       .  A
N528        C581   1.441       .  S
C529       N1168   1.366       .  A
C529       H1175   1.082       .  S
C530        H532   1.082       .  S
N531        C533   1.360       .  A
N531        C570   1.409       .  S
C533        H534   1.082       .  S
H535       C1169   1.081       .  S
H537       C1167   1.082       .  S
C538        C540   1.532       .  S
C538       C1182   1.532       .  S
C538        C541   1.528       .  S
C538        C562   1.480       .  S
C539        C543   1.543       .  S
C539       C1185   1.544       .  S
C539        C544   1.539       .  S
C539        C564   1.486       .  S
C540        C548   1.377       .  A
C540        C543   1.396       .  A
C541        C552   1.368       .  A
C541        C544   1.391       .  A
C542       C1178   1.539       .  S
C542        C556   1.382       .  A
C542        C545   1.397       .  A
C543        C546   1.383       .  A
C544        C550   1.383       .  A
C545       C1179   1.544       .  S
C545        C553   1.385       .  A
C546        N547   1.360       .  A
C546        H559   1.082       .  S
N547        C548   1.356       .  A
N547        C568   1.409       .  S
C548        H549   1.083       .  S
C550       N1191   1.366       .  A
C550       H1200   1.081       .  S
N551       C1190   1.363       .  A
N551       C1192   1.362       .  A
N551        C578   1.449       .  S
C552       N1191   1.352       .  A
C552       H1198   1.083       .  S
C553        N554   1.361       .  A
C553        H555   1.082       .  S
N554        C556   1.358       .  A
N554        C566   1.413       .  S
C556        H557   1.082       .  S
H558       C1192   1.082       .  S
H560       C1190   1.083       .  S
C561        C562   1.212       .  T
C563        C564   1.216       .  T
C565        C566   1.216       .  T
C567        C568   1.212       .  T
C569        C570   1.212       .  T
C571        C572   1.211       .  T
C573        C574   1.217       .  T
C575        C576   1.208       .  T
C577       C1105   1.497       .  S
C577        C578   1.357       .  D
C577       H1219   1.085       .  S
C578        H580   1.087       .  S
H579       C1217   1.085       .  S
C581        C582   1.348       .  D
C581       H1223   1.087       .  S
C582       C1092   1.482       .  S
H583       C1221   1.087       .  S
C585        C586   1.202       .  T
C586        C587   1.404       .  S
C587        C588   1.202       .  T
C589        C590   1.199       .  T
C590        C591   1.398       .  S
C591        C592   1.199       .  T
C593        C594   1.355       .  D
C593        H595   1.085       .  S
C594        H596   1.087       .  S
C597        C598   1.345       .  D
C598        H600   1.087       .  S
C601        C602   1.197       .  T
C602        C603   1.397       .  S
C603        C604   1.199       .  T
C605        C606   1.204       .  T
C606        C607   1.408       .  S
C607        C608   1.204       .  T
C609        C610   1.353       .  D
C609        H611   1.087       .  S
C610       H1252   1.085       .  S
H612       C1250   1.086       .  S
C613        C614   1.214       .  T
C615        C616   1.217       .  T
C617        C618   1.347   1_554  D
C617        H619   1.087       .  S
C618        H940   1.085       .  S
H620        C938   1.085       .  S
C621        C622   1.218       .  T
C623        C624   1.216       .  T
C625        C626   1.343       .  D
C625        H627   1.087       .  S
C626        H628   1.085       .  S
C629        C630   1.210       .  T
C631        C632   1.209       .  T
C633        C634   1.216       .  T
C635        C636   1.213       .  T
C637        C638   1.342       .  D
C638        H640   1.085       .  S
C641        C643   1.537       .  S
C641        C645   1.543       .  S
C641        C644   1.532       .  S
C641        C953   1.485       .  S
C642        C646   1.536       .  S
C642        C648   1.535       .  S
C642        C647   1.540       .  S
C642        C956   1.479       .  S
C643        C651   1.379       .  A
C643        C966   1.398       .  A
C644        C655   1.375       .  A
C644        C967   1.393       .  A
C645        C659   1.385       .  A
C645        C968   1.398       .  A
C646        C963   1.396   1_554  A
C646        C649   1.380       .  A
C647        C964   1.391   1_554  A
C647        C653   1.381       .  A
C648        C965   1.396   1_554  A
C648        C656   1.378       .  A
C649        N650   1.357   1_554  A
C649        H662   1.082       .  S
N650        C971   1.361       .  A
N650       C1272   1.411       .  S
C651        N970   1.357       .  A
C651        H652   1.082       .  S
C653        N654   1.367   1_554  A
C653        H663   1.081       .  S
N654        C975   1.356       .  A
N654       C1277   1.446       .  S
C655        N974   1.358       .  A
C655        H661   1.083       .  S
C656        N657   1.357   1_554  A
C656        H658   1.083       .  S
N657        C979   1.358       .  A
N657       C1269   1.405       .  S
C659        N977   1.362       .  A
C659        H660   1.082       .  S
C664        C666   1.542       .  S
C664        C668   1.539       .  S
C664        C667   1.534       .  S
C664        C955   1.480       .  S
C665        C669   1.552       .  S
C665        C671   1.539       .  S
C665        C670   1.551       .  S
C665        C954   1.484       .  S
C666        C674   1.387       .  A
C666        C669   1.395       .  A
C667        C678   1.375       .  A
C667        C670   1.394       .  A
C668        C682   1.384       .  A
C668        C671   1.393       .  A
C669        C672   1.390       .  A
C670        C676   1.393       .  A
C671        C679   1.383       .  A
C672        N673   1.364       .  A
C672        H685   1.082       .  S
N673        C674   1.362       .  A
N673        C943   1.424       .  S
C674        H675   1.082       .  S
C676        N677   1.369       .  A
C676        H686   1.082       .  S
N677        C678   1.357       .  A
N677        C945   1.450       .  S
C678        H684   1.082       .  S
C679        N680   1.358       .  A
C679        H681   1.082       .  S
N680        C682   1.360       .  A
N680        C941   1.413       .  S
C682        H683   1.082       .  S
C687        C689   1.535       .  S
C687        C690   1.535       .  S
C687        C936   1.485       .  S
C688        C692   1.535       .  S
C688        C693   1.535       .  S
C688        C934   1.478       .  S
C689        C697   1.379       .  A
C689       C1012   1.396   1_554  A
C690       C1013   1.396   1_554  A
C691        C705   1.385       .  A
C691       C1014   1.392   1_554  A
C692       C1009   1.396       .  A
C692        C695   1.378       .  A
C693       C1010   1.391       .  A
C694       C1011   1.413       .  A
C694        C702   1.388       .  A
C695        N696   1.357       .  A
C695        H708   1.082       .  S
N696       C1017   1.362       .  A
N696        C950   1.411       .  S
C697       N1016   1.358   1_554  A
C697        H698   1.083       .  S
C699        N700   1.369       .  A
C699        H709   1.082       .  S
N700       C1021   1.351       .  A
N700        C937   1.443       .  S
C701       N1020   1.365   1_554  A
C701        H707   1.081       .  S
C702        N703   1.357       .  A
C702        H704   1.082       .  S
N703       C1025   1.352       .  A
N703        C951   1.410       .  S
C705       N1023   1.360   1_554  A
C705        H706   1.082       .  S
C710        C712   1.542       .  S
C710        C713   1.538       .  S
C710        C933   1.478       .  S
C711        C715   1.539       .  S
C711        C716   1.537       .  S
C711        C935   1.484       .  S
C712        C720   1.384       .  A
C712        C715   1.396       .  A
C713        C716   1.393       .  A
C714        C728   1.395       .  A
C714        C717   1.402       .  A
C715        C718   1.381       .  A
C717        C725   1.391       .  A
C718        N719   1.359       .  A
C718        H731   1.082       .  S
N719        C720   1.361       .  A
N719        C942   1.413       .  S
C720        H721   1.082       .  S
C722        N723   1.358       .  A
C722        H732   1.082       .  S
N723        C724   1.370       .  A
N723        C929   1.455       .  S
C724        H730   1.082       .  S
C725        N726   1.357       .  A
C725        H727   1.082       .  S
N726        C728   1.360       .  A
N726        C944   1.424       .  S
C728        H729   1.082       .  S
O733      Ni1061   1.946       .  S
O733       C1063   1.288   1_556  A
O734       Ni741   1.922       .  S
O734       C1064   1.281       .  A
O735       Ni741   1.913       .  S
O735        C745   1.281       .  A
O736      Ni1061   1.915       .  S
O736        C746   1.276   1_556  A
O737      Ni1062   1.918       .  S
O737        C746   1.282       .  A
O738       Ni742   1.911       .  S
O738        C745   1.276       .  A
O739      Ni1062   1.905       .  S
O739        C744   1.277       .  A
O740       Ni742   1.926       .  S
O740        C743   1.282       .  A
Ni741      O1053   1.919       .  S
Ni741      O1056   1.923       .  S
Ni741      Ni742   2.392       .  S
Ni742      O1057   1.904       .  S
Ni742      O1059   1.928       .  S
C743       O1053   1.282       .  A
C743        C958   1.481       .  S
C744       O1054   1.289   1_554  A
C744        C917   1.485       .  S
C745        C924   1.428       .  S
C746        C925   1.435       .  S
O747       Ni755   1.931       .  S
O747        C757   1.285       .  A
O748       Ni755   1.929       .  S
O748        C758   1.283       .  A
O749       Ni755   1.908       .  S
O749        C759   1.275       .  A
O750       Ni755   1.900       .  S
O750        C760   1.278       .  A
O751       Ni756   1.927       .  S
O751        C760   1.278       .  A
O752       Ni756   1.910       .  S
O752        C759   1.281       .  A
O753       Ni756   1.931       .  S
O753        C758   1.284       .  A
O754       Ni756   1.933       .  S
O754        C757   1.284       .  A
Ni755      Ni756   2.390       .  S
C757        C946   1.495       .  S
C758        C913   1.489       .  S
C759        C921   1.426       .  S
C760        C928   1.432       .  S
O761      Ni1089   1.921   1_655  S
O762       Ni769   1.911       .  S
O763       Ni769   1.930       .  S
O764      Ni1089   1.906       .  S
O765      Ni1090   1.902       .  S
O765        C774   1.280       .  A
O766       Ni770   1.895       .  S
O766        C773   1.281   1_465  A
O767      Ni1090   1.929       .  S
O767        C772   1.285   1_554  A
O768       Ni770   1.922   1_655  S
O768        C771   1.280       .  A
Ni769      O1081   1.911   1_455  S
Ni769      O1084   1.918       .  S
Ni770      O1085   1.917       .  S
Ni770      O1087   1.908       .  S
C771        C938   1.487       .  S
C773        C905   1.416       .  S
C774        C912   1.426       .  S
O775       Ni783   1.919       .  S
O776       Ni783   1.917   1_655  S
O777       Ni783   1.922       .  S
O778       Ni783   1.911       .  S
O779       Ni784   1.928       .  S
O779        C788   1.285       .  A
O780       Ni784   1.925   1_655  S
O780        C787   1.281       .  A
O781       Ni784   1.913   1_655  S
O781        C786   1.280       .  A
O782       Ni784   1.928       .  S
O782        C785   1.282       .  A
C786        C930   1.507       .  S
C787        C908   1.416       .  S
C788        C909   1.432       .  S
C789        C791   1.543       .  S
C789        C793   1.546       .  S
C789        C792   1.547       .  S
C789        C893   1.489       .  S
C790        C794   1.539       .  S
C790        C796   1.544       .  S
C790        C795   1.550       .  S
C790        C895   1.487       .  S
C791        C799   1.383       .  A
C791       C1114   1.400       .  A
C792        C803   1.388       .  A
C792       C1115   1.393       .  A
C793        C807   1.386       .  A
C793       C1116   1.394       .  A
C794       C1111   1.396   1_554  A
C794        C797   1.381       .  A
C795       C1112   1.394   1_554  A
C795        C801   1.386       .  A
C796       C1113   1.394   1_554  A
C796        C804   1.385       .  A
C797        N798   1.358       .  A
C797        H810   1.082       .  S
N798       C1119   1.359   1_554  A
N798        C889   1.410       .  S
C799       N1118   1.359       .  A
C799        H800   1.082       .  S
C801        N802   1.371   1_554  A
C801        H811   1.081       .  S
N802       C1123   1.357       .  A
N802        C918   1.451       .  S
C803       N1122   1.367       .  A
C803        H809   1.082       .  S
C804        N805   1.361       .  A
C804        H806   1.082       .  S
N805       C1127   1.356   1_554  A
N805        C891   1.410       .  S
C807       N1125   1.362       .  A
C807        H808   1.082       .  S
C812        C814   1.544       .  S
C812        C816   1.546       .  S
C812        C815   1.538       .  S
C812        C896   1.487       .  S
C813        C817   1.540       .  S
C813        C819   1.546       .  S
C813        C818   1.541       .  S
C813        C894   1.490       .  S
C814        C822   1.384       .  A
C814        C817   1.398       .  A
C815        C826   1.383       .  A
C815        C818   1.395       .  A
C816        C830   1.388       .  A
C816        C819   1.396       .  A
C817        C820   1.382       .  A
C818        C824   1.382       .  A
C819        C827   1.388       .  A
C820        N821   1.359       .  A
C820        H833   1.082       .  S
N821        C822   1.360       .  A
N821        C885   1.413       .  S
C822        H823   1.082       .  S
C824        N825   1.361       .  A
C824        H834   1.083       .  S
N825        C826   1.363       .  A
N825        C914   1.450       .  S
C826        H832   1.082       .  S
C827        N828   1.362       .  A
C827        H829   1.082       .  S
N828        C830   1.362       .  A
N828        C887   1.422       .  S
C830        H831   1.082       .  S
C835        C837   1.532   1_545  S
C835        C838   1.527       .  S
C835        C883   1.475       .  S
C836        C840   1.537   1_545  S
C836        C841   1.530   1_545  S
C836        C881   1.484       .  S
C837        C845   1.377       .  A
C837       C1160   1.396   1_554  A
C838        C849   1.371       .  A
C838       C1161   1.391   1_554  A
C839        C853   1.384       .  A
C839       C1162   1.397   1_554  A
C840       C1157   1.399       .  A
C840        C843   1.379       .  A
C841       C1158   1.394       .  A
C841        C847   1.371       .  A
C842       C1159   1.395       .  A
C842        C850   1.379       .  A
C843       N1164   1.358       .  A
C843        H856   1.082       .  S
N844       C1163   1.361   1_554  A
N844        C845   1.356       .  A
N844        C892   1.410       .  S
C845        H846   1.082       .  S
N848        C901   1.443       .  S
C850       N1171   1.357       .  A
C850        H852   1.083       .  S
N851       C1170   1.356   1_554  A
N851        C853   1.360       .  A
N851        C890   1.410       .  S
C853        H854   1.082       .  S
C858        C860   1.550   1_545  S
C858        C861   1.551       .  S
C858        C882   1.482       .  S
C859        C863   1.537   1_545  S
C859        C864   1.542       .  S
C859        C884   1.476       .  S
C860        C868   1.390       .  A
C860        C863   1.393       .  A
C861        C872   1.394       .  A
C861        C864   1.396       .  A
C862        C876   1.382       .  A
C862        C865   1.396       .  A
C863        C866   1.386       .  A
C864        C870   1.380       .  A
C865        C873   1.383       .  A
C866        N867   1.360       .  A
C866        H879   1.082       .  S
N867        C868   1.364       .  A
N867        C888   1.422       .  S
C868        H869   1.082       .  S
N871        C898   1.447       .  S
C873        N874   1.360       .  A
C873        H875   1.082       .  S
N874        C876   1.359       .  A
N874        C886   1.413       .  S
C876        H877   1.082       .  S
C881        C882   1.214       .  T
C883        C884   1.210       .  T
C885        C886   1.216       .  T
C887        C888   1.223       .  T
C889        C890   1.213       .  T
C891        C892   1.213       .  T
C893        C894   1.218       .  T
C895        C896   1.217       .  T
C897        C898   1.345       .  D
C898        H900   1.087       .  S
C901        C902   1.345   1_556  D
C902       H1224   1.085       .  S
H904       C1222   1.085       .  S
C905        C906   1.196       .  T
C906        C907   1.401       .  S
C907        C908   1.199       .  T
C909        C910   1.202       .  T
C910        C911   1.400       .  S
C911        C912   1.197       .  T
C913        C914   1.352       .  D
C913        H915   1.085       .  S
C914        H916   1.087       .  S
C917        C918   1.344   1_554  D
C917       H1239   1.084       .  S
C918        H920   1.087       .  S
H919       C1237   1.086       .  S
C921        C922   1.198       .  T
C922        C923   1.399       .  S
C923        C924   1.199       .  T
C925        C926   1.203       .  T
C926        C927   1.405       .  S
C927        C928   1.202       .  T
C929        C930   1.359       .  D
C929        H931   1.087       .  S
C933        C934   1.211       .  T
C935        C936   1.215       .  T
C937        C938   1.343       .  D
C937        H939   1.088       .  S
C941        C942   1.216       .  T
C943        C944   1.225       .  T
C945        C946   1.350       .  D
C945        H947   1.087       .  S
C946        H948   1.085       .  S
C949        N977   1.412       .  S
C949        C950   1.214       .  T
C951        C952   1.214       .  T
C952        N970   1.411       .  S
C953        C954   1.215       .  T
C955        C956   1.212       .  T
C957        N974   1.441       .  S
C957        C958   1.346       .  D
C957       H1279   1.087       .  S
C958        H960   1.086       .  S
H959       C1277   1.087       .  S
C961        C963   1.542       .  S
C961        C965   1.536       .  S
C961        C964   1.531       .  S
C961       C1273   1.478       .  S
C962        C966   1.544       .  S
C962        C968   1.538       .  S
C962        C967   1.537       .  S
C962       C1276   1.486       .  S
C963        C971   1.383       .  A
C964        C975   1.376       .  A
C965        C979   1.379       .  A
C966        C969   1.384       .  A
C967        C973   1.380       .  A
C968        C976   1.379       .  A
C969        N970   1.361       .  A
C969        H982   1.082       .  S
C971        H972   1.082       .  S
C973        N974   1.363       .  A
C973        H983   1.082       .  S
C975        H981   1.082       .  S
C976        N977   1.357       .  A
C976        H978   1.082       .  S
C979        H980   1.082       .  S
C984        C986   1.538       .  S
C984        C988   1.548       .  S
C984        C987   1.544       .  S
C984       C1275   1.485       .  S
C985        C989   1.530       .  S
C985        C991   1.533       .  S
C985        C990   1.539       .  S
C985       C1274   1.478       .  S
C986        C994   1.381       .  A
C986        C989   1.393       .  A
C987        C998   1.382       .  A
C987        C990   1.395       .  A
C988       C1002   1.387       .  A
C988        C991   1.397       .  A
C989        C992   1.378       .  A
C990        C996   1.380       .  A
C991        C999   1.378       .  A
C992        N993   1.356       .  A
C992       H1005   1.083       .  S
N993        C994   1.358       .  A
N993       C1263   1.407       .  S
C994        H995   1.082       .  S
C996        N997   1.365       .  A
C996       H1006   1.080       .  S
N997        C998   1.363       .  A
N997       C1265   1.453       .  S
C998       H1004   1.083       .  S
C999       N1000   1.356       .  A
C999       H1001   1.083       .  S
N1000      C1002   1.363       .  A
N1000      C1261   1.412       .  S
C1002      H1003   1.082       .  S
C1007      C1009   1.544       .  S
C1007      C1010   1.535       .  S
C1007      C1256   1.480       .  S
C1008      C1012   1.535       .  S
C1008      C1013   1.540       .  S
C1008      C1254   1.482       .  S
C1009      C1017   1.385       .  A
C1011      C1025   1.381       .  A
C1012      C1015   1.378       .  A
C1014      C1022   1.380       .  A
C1015      N1016   1.357       .  A
C1015      H1028   1.082       .  S
N1016      C1270   1.405       .  S
C1017      H1018   1.082       .  S
C1019      N1020   1.361       .  A
C1019      H1029   1.083       .  S
N1020      C1257   1.449       .  S
C1021      H1027   1.079       .  S
C1022      N1023   1.357       .  A
C1022      H1024   1.083       .  S
N1023      C1271   1.411       .  S
C1025      H1026   1.083       .  S
C1030      C1032   1.546       .  S
C1030      C1033   1.537       .  S
C1030      C1253   1.482       .  S
C1031      C1035   1.532       .  S
C1031      C1036   1.540       .  S
C1031      C1255   1.480       .  S
C1032      C1040   1.386       .  A
C1032      C1035   1.395       .  A
C1033      C1036   1.394       .  A
C1034      C1048   1.384       .  A
C1034      C1037   1.410       .  A
C1035      C1038   1.378       .  A
C1037      C1045   1.382       .  A
C1038      N1039   1.356       .  A
C1038      H1051   1.082       .  S
N1039      C1040   1.362       .  A
N1039      C1262   1.412       .  S
C1040      H1041   1.082       .  S
C1042      N1043   1.362       .  A
C1042      H1052   1.079       .  S
N1043      C1044   1.364       .  A
N1043      C1249   1.451       .  S
C1044      H1050   1.082       .  S
C1045      N1046   1.352       .  A
C1045      H1047   1.083       .  S
N1046      C1048   1.355       .  A
N1046      C1264   1.407       .  S
C1048      H1049   1.083       .  S
O1054     Ni1061   1.949       .  S
O1055     Ni1061   1.904       .  S
O1055      C1065   1.278       .  A
O1056      C1066   1.279       .  A
O1057      C1066   1.279       .  A
O1058     Ni1062   1.927       .  S
O1058      C1065   1.280   1_554  A
O1059      C1064   1.285       .  A
O1060     Ni1062   1.902       .  S
O1060      C1063   1.276       .  A
Ni1061    Ni1062   2.390   1_556  S
C1063      C1278   1.480       .  S
C1064      C1237   1.485       .  S
C1065      C1244   1.434       .  S
C1066      C1245   1.431       .  S
O1067     Ni1075   1.940       .  S
O1067      C1077   1.286       .  A
O1068     Ni1075   1.942       .  S
O1068      C1078   1.286       .  A
O1069     Ni1075   1.926       .  S
O1069      C1079   1.279       .  A
O1070     Ni1075   1.909       .  S
O1070      C1080   1.280       .  A
O1071     Ni1076   1.916       .  S
O1071      C1080   1.277       .  A
O1072     Ni1076   1.905       .  S
O1072      C1079   1.279       .  A
O1073     Ni1076   1.926       .  S
O1073      C1078   1.282       .  A
O1074     Ni1076   1.922       .  S
O1074      C1077   1.281       .  A
Ni1075    Ni1076   2.390       .  S
C1077      C1266   1.488       .  S
C1078      C1233   1.494       .  S
C1079      C1241   1.433       .  S
C1080      C1248   1.430       .  S
O1082     Ni1089   1.922       .  S
O1083     Ni1089   1.918       .  S
O1085      C1094   1.277       .  A
O1086     Ni1090   1.907   1_655  S
O1086      C1093   1.274   1_544  A
O1087      C1092   1.281       .  A
O1088     Ni1090   1.925   1_655  S
O1088      C1091   1.283       .  A
C1091      C1258   1.487       .  S
C1093      C1225   1.423       .  S
C1094      C1232   1.425       .  S
O1095     Ni1103   1.910       .  S
O1096     Ni1103   1.912   1_655  S
O1097     Ni1103   1.924       .  S
O1098     Ni1103   1.913       .  S
O1099     Ni1104   1.899       .  S
O1099      C1108   1.272       .  A
O1100     Ni1104   1.871   1_655  S
O1100      C1107   1.271       .  A
O1101     Ni1104   1.963   1_655  S
O1101      C1106   1.293       .  A
O1102     Ni1104   1.952       .  S
O1102      C1105   1.289       .  A
C1106      C1250   1.501       .  S
C1107      C1228   1.424       .  S
C1108      C1229   1.432       .  S
C1109      C1111   1.537       .  S
C1109      C1113   1.531       .  S
C1109      C1112   1.530       .  S
C1109      C1213   1.475       .  S
C1110      C1114   1.536       .  S
C1110      C1116   1.531       .  S
C1110      C1115   1.527       .  S
C1110      C1215   1.477       .  S
C1111      C1119   1.381       .  A
C1112      C1123   1.375       .  A
C1113      C1127   1.378       .  A
C1114      C1117   1.380       .  A
C1115      C1121   1.371       .  A
C1116      C1124   1.378       .  A
C1117      N1118   1.357       .  A
C1117      H1130   1.082       .  S
N1118      C1209   1.410       .  S
C1119      H1120   1.082       .  S
C1121      N1122   1.354       .  A
C1121      H1131   1.082       .  S
N1122      C1238   1.443       .  S
C1123      H1129   1.082       .  S
C1124      N1125   1.356       .  A
C1124      H1126   1.083       .  S
N1125      C1211   1.411       .  S
C1127      H1128   1.083       .  S
C1132      C1134   1.532       .  S
C1132      C1136   1.535       .  S
C1132      C1135   1.542       .  S
C1132      C1216   1.476       .  S
C1133      C1137   1.534       .  S
C1133      C1139   1.539       .  S
C1133      C1138   1.542       .  S
C1133      C1214   1.474       .  S
C1134      C1142   1.378       .  A
C1134      C1137   1.391       .  A
C1135      C1146   1.382       .  A
C1135      C1138   1.393       .  A
C1136      C1150   1.378       .  A
C1136      C1139   1.396       .  A
C1137      C1140   1.380       .  A
C1138      C1144   1.384       .  A
C1139      C1147   1.381       .  A
C1140      N1141   1.358       .  A
C1140      H1153   1.083       .  S
N1141      C1142   1.356       .  A
N1141      C1205   1.406       .  S
C1142      H1143   1.082       .  S
C1144      N1145   1.366       .  A
C1144      H1154   1.081       .  S
N1145      C1146   1.363       .  A
N1145      C1234   1.454       .  S
C1146      H1152   1.081       .  S
C1147      N1148   1.359       .  A
C1147      H1149   1.082       .  S
N1148      C1150   1.357       .  A
N1148      C1207   1.406       .  S
C1150      H1151   1.083       .  S
C1155      C1157   1.545   1_545  S
C1155      C1158   1.540   1_545  S
C1155      C1203   1.489       .  S
C1156      C1160   1.544   1_545  S
C1156      C1161   1.540       .  S
C1156      C1201   1.478       .  S
C1157      C1165   1.383       .  A
C1158      C1169   1.384       .  A
C1159      C1173   1.382       .  A
C1160      C1163   1.384       .  A
C1161      C1167   1.383       .  A
C1162      C1170   1.379       .  A
C1163      H1176   1.082       .  S
N1164      C1165   1.361       .  A
N1164      C1212   1.411       .  S
C1165      H1166   1.082       .  S
N1168      C1221   1.446       .  S
C1170      H1172   1.083       .  S
N1171      C1173   1.360       .  A
N1171      C1210   1.410       .  S
C1173      H1174   1.082       .  S
C1178      C1180   1.532   1_545  S
C1178      C1181   1.539   1_545  S
C1178      C1202   1.479       .  S
C1179      C1183   1.538   1_545  S
C1179      C1184   1.545   1_545  S
C1179      C1204   1.489       .  S
C1180      C1188   1.377       .  A
C1180      C1183   1.395       .  A
C1181      C1192   1.386       .  A
C1181      C1184   1.396       .  A
C1182      C1196   1.377       .  A
C1182      C1185   1.401       .  A
C1183      C1186   1.380       .  A
C1184      C1190   1.381       .  A
C1185      C1193   1.383       .  A
C1186      N1187   1.358       .  A
C1186      H1199   1.082       .  S
N1187      C1188   1.356       .  A
N1187      C1208   1.406       .  S
C1188      H1189   1.082       .  S
N1191      C1218   1.444       .  S
C1193      N1194   1.359       .  A
C1193      H1195   1.082       .  S
N1194      C1196   1.355       .  A
N1194      C1206   1.407       .  S
C1196      H1197   1.083       .  S
C1201      C1202   1.212       .  T
C1203      C1204   1.218       .  T
C1205      C1206   1.210       .  T
C1207      C1208   1.210       .  T
C1209      C1210   1.213       .  T
C1211      C1212   1.214       .  T
C1213      C1214   1.209       .  T
C1215      C1216   1.210       .  T
C1217      C1218   1.341       .  D
C1218      H1220   1.088       .  S
C1221      C1222   1.344       .  D
C1225      C1226   1.199       .  T
C1226      C1227   1.405       .  S
C1227      C1228   1.203       .  T
C1229      C1230   1.202       .  T
C1230      C1231   1.402       .  S
C1231      C1232   1.198       .  T
C1233      C1234   1.352       .  D
C1233      H1235   1.085       .  S
C1234      H1236   1.087       .  S
C1237      C1238   1.344       .  D
C1238      H1240   1.087       .  S
C1241      C1242   1.203       .  T
C1242      C1243   1.407       .  S
C1243      C1244   1.204       .  T
C1245      C1246   1.202       .  T
C1246      C1247   1.404       .  S
C1247      C1248   1.201       .  T
C1249      C1250   1.360       .  D
C1249      H1251   1.087       .  S
C1253      C1254   1.214       .  T
C1255      C1256   1.212       .  T
C1257      C1258   1.353   1_556  D
C1257      H1259   1.087       .  S
C1261      C1262   1.215       .  T
C1263      C1264   1.210       .  T
C1265      C1266   1.351       .  D
C1265      H1267   1.087       .  S
C1266      H1268   1.084       .  S
C1269      C1270   1.209       .  T
C1271      C1272   1.214       .  T
C1273      C1274   1.211       .  T
C1275      C1276   1.216       .  T
C1277      C1278   1.342   1_556  D
C1278      H1280   1.085       .  S
