geometry optimzed in LAMMPS
_audit_creation_date              2020-11-30 
_audit_creation_method            'lammps2cif' 
_symmetry_space_group_name_H-M    'P1' 
_symmetry_Int_Tables_number       1 
_symmetry_cell_setting            triclinic 
loop_ 
_symmetry_equiv_pos_as_xyz 
  x,y,z 
_cell_length_a                    35.38083011 
_cell_length_b                    35.34557337937988 
_cell_length_c                    35.41784202387816 
_cell_angle_alpha                 91.3958554830284 
_cell_angle_beta                  88.60048098520845 
_cell_angle_gamma                 91.62534405539819 
loop_ 
_atom_site_label 
_atom_site_type_symbol 
_atom_site_fract_x 
_atom_site_fract_y 
_atom_site_fract_z 
_atom_site_charge 
N1          N  0.58983065  0.58964674  0.05422165    -0.27200
N2          N  0.56786492  0.61199758  0.03557923    -0.35000
C3          C  0.58997965  0.63825669  0.01799814     0.01200
C4          C  0.62748632  0.63132789  0.02545628     0.07200
C5          C  0.62617239  0.60039201  0.04847271    -0.05900
H6          H  0.57974914  0.65923143  0.99927659     0.07900
H7          H  0.65000160  0.58544286  0.05871344     0.09100
Cu8        Cu  0.50954133  0.60088873  0.03079109     0.44200
Cu9        Cu  0.57154849  0.53994764  0.07880348     0.42000
Cu10       Cu  0.47780500  0.50692574  0.05890654     0.43900
N11         N  0.45321086  0.58059192  0.02862606    -0.34500
N12         N  0.44121394  0.54708968  0.04068034    -0.28800
C13         C  0.40457396  0.54139261  0.03178830    -0.04900
C14         C  0.39298069  0.57261059  0.01282771     0.07300
C15         C  0.42458847  0.59676075  0.01133461     0.01100
H16         H  0.38895141  0.51487061  0.03507138     0.08800
H17         H  0.42735135  0.62300424  0.99625857     0.07800
N18         N  0.52375037  0.47179506  0.05928364    -0.36000
N19         N  0.55783776  0.48366729  0.06930146    -0.28200
C20         C  0.58343144  0.45956805  0.05504205    -0.03400
C21         C  0.56498992  0.43180126  0.03352716     0.05200
C22         C  0.52697768  0.44011786  0.03780728     0.03300
H23         H  0.61349811  0.46604153  0.05426972     0.08400
H24         H  0.50434787  0.42864872  0.02067902     0.07200
N25         N  0.55514874  0.20595067  0.69103551    -0.27200
N26         N  0.57658940  0.17587124  0.69059047    -0.35000
C27         C  0.55380530  0.14474015  0.69432137     0.01200
C28         C  0.51647943  0.15609471  0.69723961     0.07200
C29         C  0.51864856  0.19500972  0.69483592    -0.05900
H30         H  0.56372245  0.11621367  0.69643005     0.07900
H31         H  0.49556775  0.21433220  0.69819151     0.09100
Cu32       Cu  0.63617148  0.18049277  0.68837252     0.44200
Cu33       Cu  0.57540311  0.26112698  0.69559704     0.42000
Cu34       Cu  0.67458656  0.27726907  0.69053715     0.43900
N35         N  0.69439801  0.19522955  0.68669709    -0.34500
N36         N  0.70795023  0.23040892  0.68454241    -0.28800
C37         C  0.74549949  0.23094516  0.68994897    -0.04900
C38         C  0.75647442  0.19451524  0.69637720     0.07300
C39         C  0.72323615  0.17268014  0.69409334     0.01100
H40         H  0.76224400  0.25654627  0.69518146     0.08800
H41         H  0.71959116  0.14337905  0.70193639     0.07800
N42         N  0.63856485  0.31345746  0.71932282    -0.36000
N43         N  0.60153535  0.30778541  0.72074677    -0.28200
C44         C  0.58695956  0.32796076  0.74999065    -0.03400
C45         C  0.61628442  0.34681947  0.76833346     0.05200
C46         C  0.64855483  0.33714132  0.74783131     0.03300
H47         H  0.55831266  0.32401938  0.76085176     0.08400
H48         H  0.67745842  0.34242415  0.75627767     0.07200
N49         N  0.78099110  0.06538803  0.34816464    -0.27200
N50         N  0.80599573  0.04887306  0.36890359    -0.35000
C51         C  0.83043712  0.03045821  0.34560507     0.01200
C52         C  0.81964962  0.03531778  0.30860874     0.07200
C53         C  0.78818895  0.05750504  0.31144525    -0.05900
H54         H  0.85367756  0.01403214  0.35488213     0.07900
H55         H  0.77170134  0.06734330  0.28848836     0.09100
Cu56       Cu  0.80190180  0.05084569  0.42799852     0.44200
Cu57       Cu  0.73734821  0.09682418  0.37071927     0.42000
Cu58       Cu  0.72217235  0.10356771  0.47131126     0.43900
N59         N  0.78719698  0.05241786  0.48568869    -0.34500
N60         N  0.75938035  0.07197961  0.50157443    -0.28800
C61         C  0.75525215  0.06248911  0.53817805    -0.04900
C62         C  0.78132203  0.03534516  0.54554394     0.07300
C63         C  0.80104972  0.02981972  0.51167779     0.01100
H64         H  0.73247458  0.07169295  0.55682047     0.08800
H65         H  0.82209744  0.00876576  0.50559615     0.07800
N66         N  0.68311039  0.12108802  0.43278397    -0.36000
N67         N  0.68942390  0.11893943  0.39593495    -0.28200
C68         C  0.65666121  0.12222150  0.37823571    -0.03400
C69         C  0.62762296  0.12597774  0.40495409     0.05200
C70         C  0.64587137  0.12579163  0.43936566     0.03300
H71         H  0.65348189  0.11526615  0.34862829     0.08400
H72         H  0.63246014  0.12344866  0.46701187     0.07200
N73         N  0.38944905  0.78781655  0.38678515    -0.27200
N74         N  0.36067877  0.77641214  0.36586406    -0.35000
C75         C  0.33029893  0.77026970  0.38901731     0.01200
C76         C  0.34100170  0.77808191  0.42599686     0.07200
C77         C  0.37864150  0.78895515  0.42329989    -0.05900
H78         H  0.30240412  0.76167536  0.37963507     0.07900
H79         H  0.39637807  0.79937576  0.44598199     0.09100
Cu80       Cu  0.36615689  0.77200928  0.30663616     0.44200
Cu81       Cu  0.43915452  0.81045570  0.36549288     0.42000
Cu82       Cu  0.45776095  0.80947944  0.26855595     0.43900
N83         N  0.38462127  0.76811611  0.24971527    -0.34500
N84         N  0.41916581  0.77768654  0.23756125    -0.28800
C85         C  0.42040815  0.77658447  0.19966736    -0.04900
C86         C  0.38482220  0.76724055  0.18666128     0.07300
C87         C  0.36291321  0.76180789  0.21934748     0.01100
H88         H  0.44324291  0.78938620  0.18308054     0.08800
H89         H  0.33237467  0.75909527  0.22091746     0.07800
N90         N  0.47847584  0.85253128  0.30337392    -0.36000
N91         N  0.47136794  0.85198016  0.34007643    -0.28200
C92         C  0.47999938  0.88596918  0.35550698    -0.03400
C93         C  0.49341857  0.90916756  0.32722330     0.05200
C94         C  0.49235836  0.88714883  0.29434326     0.03300
H95         H  0.47400675  0.89411244  0.38464838     0.08400
H96         H  0.49772532  0.89657131  0.26583222     0.07200
O97         O  0.82388680  0.89800378  0.92372300    -0.72800
O98         O  0.85234610  0.00581898  0.91036860    -0.73800
O99         O  0.84924843  0.95662075  0.97127157    -0.62400
O100        O  0.82641521  0.94636555  0.86217682    -0.70800
O101        O  0.76688455  0.96219780  0.87372533    -0.70400
O102        O  0.79047089  0.97277653  0.98602134    -0.61600
O103        O  0.79305358  0.02234047  0.92236401    -0.74100
O104        O  0.76416409  0.91191360  0.93710092    -0.72900
Cu105      Cu  0.83983437  0.95133059  0.91648428     1.04600
Cu106      Cu  0.77634595  0.96798648  0.93032263     1.04300
C107        C  0.79018765  0.88764181  0.93288630     0.93400
C108        C  0.82742238  0.03108087  0.91360554     0.92500
C109        C  0.82401504  0.96554235  0.99598151     0.84700
C110        C  0.79330322  0.95222217  0.85051975     0.90900
N111        N  0.97623822  0.96828169  0.17215482    -0.27200
N112        N  0.97085953  0.95464889  0.13765855    -0.35000
C113        C  0.00426372  0.95054260  0.11967624     0.01200
C114        C  0.03230515  0.96209273  0.14404003     0.07200
C115        C  0.01372085  0.97304047  0.17729480    -0.05900
H116        H  0.00773675  0.94120678  0.09050139     0.07900
H117        H  0.02633387  0.98488799  0.20263234     0.09100
Cu118      Cu  0.91873780  0.94855616  0.11441934     0.44200
Cu119      Cu  0.93042521  0.98295812  0.20660422     0.42000
Cu120      Cu  0.83894355  0.99357076  0.15493677     0.43900
N121        N  0.87150195  0.95830817  0.08456158    -0.34500
N122        N  0.84146066  0.97611310  0.09772212    -0.28800
C123        C  0.81811362  0.98110401  0.06853271    -0.04900
C124        C  0.83514472  0.96594889  0.03584707     0.07300
C125        C  0.86868412  0.95181430  0.04744510     0.01100
H126        H  0.79169462  0.99576745  0.07063923     0.08800
H127        H  0.89039631  0.93884254  0.02983833     0.07800
N128        N  0.84747662  0.00440294  0.21295169    -0.36000
N129        N  0.87923102  0.99921077  0.23110819    -0.28200
C130        C  0.87385876  0.00835486  0.26794762    -0.03400
C131        C  0.83731599  0.02038679  0.27335115     0.05200
C132        C  0.82143599  0.01756853  0.23797074     0.03300
H133        H  0.89546458  0.00751521  0.28899864     0.08400
H134        H  0.79297349  0.02470352  0.23086917     0.07200
N135        N  0.84590138  0.18287752  0.74486349    -0.27200
N136        N  0.82012836  0.17038500  0.76968142    -0.35000
C137        C  0.78568514  0.17110766  0.75498804     0.01200
C138        C  0.78900277  0.18527364  0.71931377     0.07200
C139        C  0.82754235  0.19308760  0.71369532    -0.05900
H140        H  0.75976273  0.16303748  0.76992721     0.07900
H141        H  0.84111078  0.20511271  0.68886416     0.09100
Cu142      Cu  0.82861704  0.15214454  0.82317471     0.44200
Cu143      Cu  0.90487904  0.18276086  0.75514242     0.42000
Cu144      Cu  0.91930589  0.13568662  0.84482890     0.43900
N145        N  0.83982630  0.12019166  0.86872394    -0.34500
N146        N  0.87508988  0.11299456  0.87634688    -0.28800
C147        C  0.87554916  0.08265441  0.89828077    -0.04900
C148        C  0.83860257  0.06999041  0.90451928     0.07300
C149        C  0.81658391  0.09481110  0.88576101     0.01100
H150        H  0.90085799  0.06763703  0.90431939     0.08800
H151        H  0.78693637  0.09076404  0.87951906     0.07800
N152        N  0.96224983  0.15321732  0.80862072    -0.36000
N153        N  0.95886451  0.17116232  0.77653528    -0.28200
C154        C  0.99409396  0.17679232  0.76124660    -0.03400
C155        C  0.02007826  0.16092135  0.78481033     0.05200
C156        C  0.99866070  0.14630408  0.81416666     0.03300
H157        H  0.00016699  0.18977417  0.73434512     0.08400
H158        H  0.00881663  0.13114695  0.83791625     0.07200
O159        O  0.98923848  0.85936559  0.56263524    -0.72800
O160        O  0.98286804  0.74677319  0.58843826    -0.73800
O161        O  0.93114338  0.80798204  0.58890391    -0.62400
O162        O  0.04237124  0.79835423  0.56155378    -0.70800
O163        O  0.05508905  0.81344179  0.62118793    -0.70400
O164        O  0.94635828  0.82092219  0.64841235    -0.61600
O165        O  0.99858186  0.76270846  0.64707530    -0.74100
O166        O  0.00348300  0.87219399  0.62234437    -0.72900
Cu167      Cu  0.98584388  0.80247077  0.57308316     1.04600
Cu168      Cu  0.00128031  0.81774719  0.63658848     1.04300
C169        C  0.99767545  0.88335957  0.58902275     0.93400
C170        C  0.98976992  0.73741761  0.62228677     0.92500
C171        C  0.92157069  0.81625074  0.62309015     0.84700
C172        C  0.06624901  0.80476963  0.58767723     0.90900
N173        N  0.96856091  0.10064974  0.56298957    -0.27200
N174        N  0.99582151  0.12532539  0.57238752    -0.35000
C175        C  0.98284683  0.16056081  0.57269740     0.01200
C176        C  0.94567936  0.15894930  0.56249567     0.07200
C177        C  0.93740017  0.12055905  0.55584634    -0.05900
H178        H  0.99981449  0.18582692  0.57889150     0.07900
H179        H  0.91077543  0.10814848  0.54659645     0.09100
Cu180      Cu  0.05010775  0.11378591  0.58608491     0.44200
Cu181      Cu  0.97633593  0.04095273  0.56302184     0.42000
Cu182      Cu  0.06618378  0.02334421  0.60907967     0.43900
N183        N  0.09424593  0.10222910  0.61967874    -0.34500
N184        N  0.09909951  0.06735111  0.63042808    -0.28800
C185        C  0.11887857  0.06833727  0.66229986    -0.04900
C186        C  0.12650316  0.10589330  0.67214817     0.07300
C187        C  0.11101811  0.12657968  0.64408342     0.01100
H188        H  0.12207148  0.04416162  0.68000655     0.08800
H189        H  0.10606445  0.15666493  0.64527580     0.07800
N190        N  0.02935264  0.98148873  0.58988973    -0.36000
N191        N  0.99685324  0.98591765  0.57294490    -0.28200
C192        C  0.98059222  0.95098189  0.56729896    -0.03400
C193        C  0.00418121  0.92406238  0.58171889     0.05200
C194        C  0.03437043  0.94474185  0.59579235     0.03300
H195        H  0.95280771  0.94575155  0.55582968     0.08400
H196        H  0.05788279  0.93389940  0.61082442     0.07200
N197        N  0.16526850  0.79603899  0.55657242    -0.27200
N198        N  0.16800932  0.80432017  0.59294484    -0.35000
C199        C  0.13356186  0.80841426  0.60845507     0.01200
C200        C  0.10726390  0.80252867  0.58075058     0.07200
C201        C  0.12819850  0.79469890  0.54787053    -0.05900
H202        H  0.12810600  0.81506673  0.63804387     0.07900
H203        H  0.11741344  0.78850142  0.52001177     0.09100
Cu204      Cu  0.21743061  0.80900030  0.62155922     0.44200
Cu205      Cu  0.21431127  0.78747104  0.52389320     0.42000
Cu206      Cu  0.30539010  0.79192078  0.58034411     0.43900
N207        N  0.26527104  0.80974205  0.65274925    -0.34500
N208        N  0.29917065  0.80256433  0.63852672    -0.28800
C209        C  0.32404141  0.80411004  0.66700728    -0.04900
C210        C  0.30422054  0.81286332  0.70037764     0.07300
C211        C  0.26719932  0.81618677  0.69001547     0.01100
H212        H  0.35402713  0.79937377  0.66371166     0.08800
H213        H  0.24314104  0.82245799  0.70833936     0.07800
N214        N  0.30089718  0.78470867  0.52163141    -0.36000
N215        N  0.26940435  0.78264598  0.50193284    -0.28200
C216        C  0.27870034  0.77875598  0.46491084    -0.03400
C217        C  0.31765083  0.77863601  0.46105576     0.05200
C218        C  0.33070425  0.78249876  0.49748599     0.03300
H219        H  0.25854218  0.77741576  0.44237825     0.08400
H220        H  0.35991667  0.78422103  0.50590681     0.07200
O221        O  0.38232636  0.87171251  0.79369291    -0.72800
O222        O  0.34920998  0.76313928  0.81307989    -0.73800
O223        O  0.35115914  0.81051870  0.74821065    -0.62400
O224        O  0.38043449  0.82367823  0.85820313    -0.70800
O225        O  0.32218587  0.84245456  0.87188150    -0.70400
O226        O  0.29351728  0.82916276  0.76451251    -0.61600
O227        O  0.29125852  0.78239871  0.82734451    -0.74100
O228        O  0.32405714  0.88894403  0.80941379    -0.72900
Cu229      Cu  0.36795914  0.81649668  0.80267011     1.04600
Cu230      Cu  0.30587357  0.83627941  0.81870846     1.04300
C231        C  0.35799165  0.89748777  0.79922082     0.93400
C232        C  0.31493225  0.75597988  0.82349413     0.92500
C233        C  0.31730511  0.81775688  0.73938002     0.84700
C234        C  0.35565452  0.83585809  0.88206687     0.90900
O235        O  0.09678521  0.97222285  0.16020070    -0.72800
O236        O  0.20725902  0.97008766  0.13342142    -0.73800
O237        O  0.15235893  0.02755326  0.13394357    -0.62400
O238        O  0.15230836  0.91461380  0.15835246    -0.70800
O239        O  0.13939586  0.90137490  0.09838232    -0.70400
O240        O  0.13704696  0.01121544  0.07528930    -0.61600
O241        O  0.19384219  0.95696680  0.07346700    -0.74100
O242        O  0.08372291  0.95612264  0.10082592    -0.72900
Cu243      Cu  0.15273617  0.97173819  0.14866820     1.04600
Cu244      Cu  0.13817295  0.95598930  0.08501117     1.04300
C245        C  0.07285697  0.96372566  0.13473514     0.93400
C246        C  0.21789223  0.96332004  0.09931724     0.92500
C247        C  0.14447312  0.03675810  0.10029929     0.84700
C248        C  0.14498020  0.89039450  0.13179652     0.90900
O249        O  0.12978331  0.09732752  0.73773823    -0.72800
O250        O  0.13029568  0.13638944  0.84353567    -0.73800
O251        O  0.07455576  0.12460297  0.78993282    -0.62400
O252        O  0.18600023  0.10984330  0.79191437    -0.70800
O253        O  0.19741835  0.16741237  0.76995991    -0.70400
O254        O  0.08351760  0.18332779  0.77004940    -0.61600
O255        O  0.14201857  0.19510300  0.82465123    -0.74100
O256        O  0.13838100  0.15576429  0.71680322    -0.72900
Cu257      Cu  0.12996814  0.11514642  0.79137057     1.04600
Cu258      Cu  0.14087375  0.17760983  0.76960214     1.04300
C259        C  0.13283327  0.12029415  0.71057309     0.93400
C260        C  0.13563971  0.17153400  0.85107498     0.92500
C261        C  0.06127345  0.15614591  0.78047971     0.84700
C262        C  0.20936216  0.13573611  0.78094195     0.90900
N263        N  0.14499868  0.21243160  0.94584750    -0.27200
N264        N  0.12796308  0.17953061  0.95276830    -0.35000
C265        C  0.12065616  0.16140570  0.92003968     0.01200
C266        C  0.13374749  0.18380946  0.89089435     0.07200
C267        C  0.14878598  0.21628048  0.90810988    -0.05900
H268        H  0.10905003  0.13280331  0.91772389     0.07900
H269        H  0.16377378  0.23949948  0.89446267     0.09100
Cu270      Cu  0.12366921  0.15588265  0.00523084     0.44200
Cu271      Cu  0.16735527  0.24559097  0.98930129     0.42000
Cu272      Cu  0.17911657  0.19382219  0.07963305     0.43900
N273        N  0.13519345  0.12531244  0.05208817    -0.34500
N274        N  0.15659607  0.13794779  0.07998295    -0.28800
C275        C  0.16204512  0.10891737  0.10340378    -0.04900
C276        C  0.14338501  0.07669744  0.08889988     0.07300
C277        C  0.12683875  0.08844892  0.05646498     0.01100
H278        H  0.17994691  0.11054381  0.12774643     0.08800
H279        H  0.11138646  0.07092033  0.03628798     0.07800
N280        N  0.19491376  0.25091283  0.07001583    -0.36000
N281        N  0.18965935  0.26920727  0.03838354    -0.28200
C282        C  0.20145241  0.30556703  0.04293065    -0.03400
C283        C  0.21514089  0.31058149  0.07890238     0.05200
C284        C  0.21066660  0.27538256  0.09523121     0.03300
H285        H  0.20026525  0.32674135  0.02146109     0.08400
H286        H  0.21769959  0.26822060  0.12369986     0.07200
N287        N  0.37385265  0.80936009  0.09539194    -0.27200
N288        N  0.35793703  0.83394294  0.11913144    -0.35000
C289        C  0.35516009  0.81955180  0.15365888     0.01200
C290        C  0.37090828  0.78444557  0.15260290     0.07200
C291        C  0.38316165  0.77894090  0.11526639    -0.05900
H292        H  0.34599093  0.83532991  0.17865613     0.07900
H293        H  0.39938174  0.75558771  0.10394386     0.09100
Cu294      Cu  0.34459345  0.88838584  0.10815641     0.44200
Cu295      Cu  0.38133208  0.82007548  0.03742862     0.42000
Cu296      Cu  0.33831026  0.91138921  0.01684155     0.43900
N297        N  0.31298507  0.93289698  0.09392379    -0.34500
N298        N  0.30786895  0.93976300  0.05807896    -0.28800
C299        C  0.27453656  0.95645553  0.05469353    -0.04900
C300        C  0.25818253  0.96026663  0.09040758     0.07300
C301        C  0.28370731  0.94578379  0.11467168     0.01100
H302        H  0.26076609  0.95998263  0.02811119     0.08800
H303        H  0.27791577  0.93825493  0.14372409     0.07800
N304        N  0.35931377  0.87391648  0.97694606    -0.36000
N305        N  0.37448472  0.84079834  0.98282962    -0.28200
C306        C  0.37879437  0.82250299  0.94902847    -0.03400
C307        C  0.36533017  0.84536181  0.92124621     0.05200
C308        C  0.35329406  0.87739179  0.94009947     0.03300
H309        H  0.38775258  0.79359283  0.94539436     0.08400
H310        H  0.33847554  0.90051945  0.92821272     0.07200
N311        N  0.39249891  0.99251164  0.77498490    -0.27200
N312        N  0.36135448  0.99958014  0.79491904    -0.35000
C313        C  0.34577193  0.96708396  0.80719870     0.01200
C314        C  0.36803530  0.93776395  0.79465922     0.07200
C315        C  0.39778256  0.95475821  0.77445021    -0.05900
H316        H  0.31901982  0.96484297  0.82256821     0.07900
H317        H  0.42024405  0.94067773  0.75889895     0.09100
Cu318      Cu  0.33622310  0.05118558  0.79901712     0.44200
Cu319      Cu  0.42196019  0.03598242  0.74710857     0.42000
Cu320      Cu  0.36529333  0.12440190  0.73951559     0.43900
N321        N  0.30174160  0.09521957  0.78836367    -0.34500
N322        N  0.31100841  0.12259758  0.76491689    -0.28800
C323        C  0.28004882  0.14342527  0.75991278    -0.04900
C324        C  0.25010639  0.12772069  0.78109326     0.07300
C325        C  0.26516838  0.09735943  0.79864339     0.01100
H326        H  0.27877542  0.16654496  0.74056656     0.08800
H327        H  0.25001215  0.07673896  0.81580121     0.07800
N328        N  0.42241782  0.11839761  0.72313433    -0.36000
N329        N  0.44247309  0.08745138  0.72583730    -0.28200
C330        C  0.47873502  0.09556664  0.71557609    -0.03400
C331        C  0.48179602  0.13330488  0.70612254     0.05200
C332        C  0.44554755  0.14672696  0.71111416     0.03300
H333        H  0.50150446  0.07584616  0.71660638     0.08400
H334        H  0.43683502  0.17552361  0.70780951     0.07200
O335        O  0.01024020  0.60996285  0.00670389    -0.72800
O336        O  0.99709186  0.57023386  0.89857650    -0.73800
O337        O  0.06032897  0.57775636  0.95024721    -0.62400
O338        O  0.94750262  0.60254527  0.95676632    -0.70800
O339        O  0.96266213  0.65933132  0.93472173    -0.70400
O340        O  0.07147064  0.63586999  0.92967116    -0.61600
O341        O  0.01171680  0.62821030  0.87941368    -0.74100
O342        O  0.02201277  0.66745001  0.98456708    -0.72900
Cu343      Cu  0.00323894  0.58779822  0.95384507     1.04600
Cu344      Cu  0.01737912  0.64938621  0.93140619     1.04300
C345        C  0.01797930  0.64524647  0.01224493     0.93400
C346        C  0.00260529  0.59374085  0.87186906     0.92500
C347        C  0.08355878  0.60376091  0.93881580     0.84700
C348        C  0.93789542  0.63562235  0.94727355     0.90900
N349        N  0.18057520  0.67453956  0.15003785    -0.27200
N350        N  0.15284577  0.64899436  0.14544425    -0.35000
C351        C  0.16714554  0.61455906  0.14003032     0.01200
C352        C  0.20580013  0.61770202  0.14188461     0.07200
C353        C  0.21364100  0.65605817  0.14887857    -0.05900
H354        H  0.15037153  0.58893659  0.13502172     0.07900
H355        H  0.24128687  0.66954901  0.15174116     0.09100
Cu356      Cu  0.09648824  0.65875718  0.14039809     0.44200
Cu357      Cu  0.17089315  0.73358978  0.15280807     0.42000
Cu358      Cu  0.07778017  0.74844902  0.11379371     0.43900
N359        N  0.05345784  0.66753360  0.10453859    -0.34500
N360        N  0.04785023  0.70182773  0.09241498    -0.28800
C361        C  0.02982641  0.69892602  0.05951439    -0.04900
C362        C  0.02421019  0.66084942  0.05040474     0.07300
C363        C  0.03907735  0.64174730  0.07990565     0.01100
H364        H  0.02607972  0.72241738  0.04104257     0.08800
H365        H  0.04502148  0.61186984  0.08004945     0.07800
N366        N  0.11416691  0.79181629  0.13181666    -0.36000
N367        N  0.14804075  0.78787236  0.14612314    -0.28200
C368        C  0.16415305  0.82290753  0.15115879    -0.03400
C369        C  0.13907284  0.84962666  0.13920130     0.05200
C370        C  0.10807752  0.82864173  0.12707346     0.03300
H371        H  0.19278985  0.82835394  0.16029821     0.08400
H372        H  0.08341449  0.83934997  0.11385364     0.07200
N373        N  0.30115495  0.57612831  0.96636499    -0.27200
N374        N  0.32525469  0.59052636  0.94089750    -0.35000
C375        C  0.36044544  0.59054396  0.95382640     0.01200
C376        C  0.35952961  0.57512465  0.98898548     0.07200
C377        C  0.32151846  0.56573926  0.99622777    -0.05900
H378        H  0.38498065  0.60220672  0.93890946     0.07900
H379        H  0.30946405  0.55415804  0.02197563     0.09100
Cu380      Cu  0.31405264  0.61691642  0.89165530     0.44200
Cu381      Cu  0.24128096  0.57628118  0.96022900     0.42000
Cu382      Cu  0.22435769  0.64076411  0.88334717     0.43900
N383        N  0.30181518  0.66093380  0.85784288    -0.34500
N384        N  0.26648915  0.67120921  0.85603372    -0.28800
C385        C  0.26556097  0.70550216  0.84074466    -0.04900
C386        C  0.30239812  0.71733228  0.83252046     0.07300
C387        C  0.32476063  0.68828003  0.84356409     0.01100
H388        H  0.24037038  0.72199070  0.83901071     0.08800
H389        H  0.35526800  0.68893047  0.84524381     0.07800
N390        N  0.18261721  0.61212848  0.91300991    -0.36000
N391        N  0.18634068  0.58898749  0.94142762    -0.28200
C392        C  0.15098781  0.57954426  0.95478597    -0.03400
C393        C  0.12464380  0.59807558  0.93350445     0.05200
C394        C  0.14610476  0.61808374  0.90761366     0.03300
H395        H  0.14502554  0.56255865  0.97934356     0.08400
H396        H  0.13591795  0.63742666  0.88718219     0.07200
N397        N  0.98075636  0.55709593  0.77652304    -0.27200
N398        N  0.99740316  0.59027312  0.76983643    -0.35000
C399        C  0.00862431  0.60647452  0.80234257     0.01200
C400        C  0.99874666  0.58279535  0.83156266     0.07200
C401        C  0.98115064  0.55137576  0.81425564    -0.05900
H402        H  0.02137161  0.63460782  0.80470795     0.07900
H403        H  0.96802924  0.52726739  0.82814021     0.09100
Cu404      Cu  0.99930619  0.61672562  0.71867545     0.44200
Cu405      Cu  0.95636353  0.52526109  0.73190366     0.42000
Cu406      Cu  0.94822793  0.58181192  0.64236866     0.43900
N407        N  0.99138807  0.64894836  0.67202717    -0.34500
N408        N  0.97150856  0.63706135  0.64280661    -0.28800
C409        C  0.96889094  0.66609219  0.61878939    -0.04900
C410        C  0.98789055  0.69761543  0.63429575     0.07300
C411        C  0.00164818  0.68541825  0.66794316     0.01100
H412        H  0.95291959  0.66490760  0.59311021     0.08800
H413        H  0.01673226  0.70235292  0.68886207     0.07800
N414        N  0.93325331  0.52434691  0.64891092    -0.36000
N415        N  0.93663522  0.50398499  0.67961346    -0.28200
C416        C  0.92727721  0.46746674  0.67096087    -0.03400
C417        C  0.91754190  0.46472976  0.63325779     0.05200
C418        C  0.92151589  0.50136801  0.62047114     0.03300
H419        H  0.92868530  0.44440624  0.69036831     0.08400
H420        H  0.91774255  0.51055636  0.59192782     0.07200
N421        N  0.77771474  0.98437031  0.63493363    -0.27200
N422        N  0.78709351  0.95766312  0.60984399    -0.35000
C423        C  0.79000821  0.97222630  0.57534150     0.01200
C424        C  0.78146490  0.00989208  0.57795386     0.07200
C425        C  0.77340940  0.01687326  0.61615033    -0.05900
H426        H  0.79787757  0.95629043  0.55003723     0.07900
H427        H  0.76614743  0.04370939  0.62933640     0.09100
Cu428      Cu  0.79949120  0.90265858  0.62037039     0.44200
Cu429      Cu  0.77500860  0.97436314  0.69369809     0.42000
Cu430      Cu  0.81268254  0.88053697  0.71231510     0.43900
N431        N  0.83063952  0.85699535  0.63318340    -0.34500
N432        N  0.83718481  0.84959284  0.66866091    -0.28800
C433        C  0.86829535  0.82887925  0.66996634    -0.04900
C434        C  0.88207578  0.82323210  0.63340052     0.07300
C435        C  0.85710148  0.84092672  0.61072842     0.01100
H436        H  0.88300246  0.82355576  0.69567034     0.08800
H437        H  0.86182057  0.84762652  0.58129629     0.07800
N438        N  0.79411848  0.91825198  0.75357262    -0.36000
N439        N  0.78048514  0.95219503  0.74828739    -0.28200
C440        C  0.77508852  0.96925517  0.78261960    -0.03400
C441        C  0.78609251  0.94472076  0.81022015     0.05200
C442        C  0.79812686  0.91305940  0.79058203     0.03300
H443        H  0.76650068  0.99819424  0.78700374     0.08400
H444        H  0.81093409  0.88863267  0.80228341     0.07200
N445        N  0.75803554  0.79057791  0.95183324    -0.27200
N446        N  0.79471516  0.78696489  0.94594070    -0.35000
C447        C  0.81072850  0.82060428  0.93805063     0.01200
C448        C  0.78294744  0.84716245  0.93900002     0.07200
C449        C  0.74960133  0.82732712  0.94793062    -0.05900
H450        H  0.84067901  0.82541037  0.93253082     0.07900
H451        H  0.72164798  0.83868537  0.95166578     0.09100
Cu452      Cu  0.82237948  0.73726615  0.94966722     0.44200
Cu453      Cu  0.72477755  0.74337932  0.96603487     0.42000
Cu454      Cu  0.77982258  0.65304999  0.98058165     0.43900
N455        N  0.85190676  0.68863558  0.95293841    -0.34500
N456        N  0.83750030  0.65614723  0.96494082    -0.28800
C457        C  0.86550666  0.63068752  0.96450412    -0.04900
C458        C  0.89869290  0.64865529  0.95131817     0.07300
C459        C  0.88864105  0.68518664  0.94441437     0.01100
H460        H  0.86214709  0.60173340  0.97349194     0.08800
H461        H  0.90699372  0.70811570  0.93461371     0.07800
N462        N  0.72177038  0.66108301  0.99161078    -0.36000
N463        N  0.70249980  0.69185045  0.98496805    -0.28200
C464        C  0.66594633  0.68567605  0.99515037    -0.03400
C465        C  0.66197114  0.64977653  0.00943955     0.05200
C466        C  0.69781540  0.63504501  0.00679912     0.03300
H467        H  0.64412476  0.70637088  0.99344370     0.08400
H468        H  0.70595946  0.60728402  0.01530465     0.07200
N469        N  0.90113531  0.39400047  0.55845951    -0.27200
N470        N  0.90551304  0.37098478  0.58686048    -0.35000
C471        C  0.91013239  0.39236934  0.61876914     0.01200
C472        C  0.90883095  0.43043003  0.60966547     0.07200
C473        C  0.90285734  0.43005088  0.57126406    -0.05900
H474        H  0.91612229  0.38119199  0.64608584     0.07900
H475        H  0.90252881  0.45432206  0.55325832     0.09100
Cu476      Cu  0.90935189  0.31167103  0.57844373     0.44200
Cu477      Cu  0.90293197  0.37793401  0.50192706     0.42000
Cu478      Cu  0.92028786  0.28232514  0.47929341     0.43900
N479        N  0.91297783  0.25467938  0.55897837    -0.34500
N480        N  0.91414048  0.24452228  0.52276834    -0.28800
C481        C  0.92031075  0.20719756  0.51928694    -0.04900
C482        C  0.92358986  0.19258973  0.55483169     0.07300
C483        C  0.91918851  0.22372357  0.57928766     0.01100
H484        H  0.92741469  0.19293364  0.49278434     0.08800
H485        H  0.92406119  0.22447258  0.60933825     0.07800
N486        N  0.93873056  0.32584631  0.44490461    -0.36000
N487        N  0.93010901  0.36133146  0.45224430    -0.28200
C488        C  0.95244580  0.38403341  0.43095919    -0.03400
C489        C  0.97746461  0.36195298  0.40978312     0.05200
C490        C  0.96737555  0.32500475  0.41924251     0.03300
H491        H  0.95350067  0.41444709  0.43456425     0.08400
H492        H  0.98289068  0.29984649  0.41238522     0.07200
N493        N  0.25564815  0.38526346  0.13898793    -0.27200
N494        N  0.24204211  0.40638493  0.11243548    -0.35000
C495        C  0.22675536  0.38305725  0.08572684     0.01200
C496        C  0.23055186  0.34580928  0.09665831     0.07200
C497        C  0.24901665  0.34851656  0.13045005    -0.05900
H498        H  0.21220140  0.39247305  0.06128517     0.07900
H499        H  0.25555176  0.32551636  0.14859777     0.09100
Cu500      Cu  0.24155638  0.46607408  0.11772117     0.44200
Cu501      Cu  0.27510627  0.40589703  0.18983316     0.42000
Cu502      Cu  0.27802222  0.50446540  0.20695710     0.43900
N503        N  0.24463667  0.52425726  0.13314795    -0.34500
N504        N  0.26127969  0.53789395  0.16387647    -0.28800
C505        C  0.25414895  0.57495008  0.16839278    -0.04900
C506        C  0.23131883  0.58543031  0.13965749     0.07300
C507        C  0.22583967  0.55253962  0.11785470     0.01100
H508        H  0.25995427  0.59134929  0.19389625     0.08800
H509        H  0.20631418  0.54857996  0.09494802     0.07800
N510        N  0.26545720  0.46637770  0.24894610    -0.36000
N511        N  0.26558244  0.42945765  0.24256467    -0.28200
C512        C  0.24424907  0.41224272  0.26920959    -0.03400
C513        C  0.22886870  0.43959884  0.29297262     0.05200
C514        C  0.24368936  0.47364904  0.27977651     0.03300
H515        H  0.23495022  0.38282835  0.26725172     0.08400
H516        H  0.23493478  0.50167633  0.28838239     0.07200
C517        C  0.12773592  0.44475859  0.33066066    -0.14200
C518        C  0.12500655  0.41219636  0.35249072     0.16200
C519        C  0.15742252  0.39061752  0.35697964     0.02400
C520        C  0.19154771  0.40129104  0.33890195    -0.12700
C521        C  0.19406249  0.43326847  0.31617404    -0.03800
C522        C  0.16173608  0.45536902  0.31236276     0.01700
C523        C  0.08735389  0.39950454  0.36735308     0.08500
N524        N  0.15596772  0.35745443  0.37930967     0.64900
H525        H  0.21598799  0.38394761  0.34183858     0.17800
N526        N  0.16165967  0.48624148  0.28703560     0.75400
H527        H  0.10276547  0.46079015  0.32591756     0.09300
C528        C  0.06530131  0.42328901  0.39079449     0.03000
C529        C  0.02927372  0.41108047  0.40315692    -0.05700
C530        C  0.01405860  0.37531165  0.39217905    -0.24100
C531        C  0.03570527  0.35218139  0.36719931     0.12300
C532        C  0.07211096  0.36426992  0.35542347    -0.13200
N533        N  0.07947648  0.45967143  0.40314131     0.63900
H534        H  0.01400763  0.42948249  0.42233665     0.11800
N535        N  0.02072528  0.31719130  0.35203098     0.60600
H536        H  0.08806447  0.34657942  0.33591534     0.07900
O537        O  0.15831152  0.51956460  0.30003716    -0.40900
O538        O  0.15768158  0.47963796  0.25215658    -0.40100
O539        O  0.15716348  0.32521802  0.36327955    -0.40100
O540        O  0.16081100  0.36055160  0.41443273    -0.37800
O541        O  0.99724660  0.31768979  0.32580732    -0.38700
O542        O  0.03657376  0.28666125  0.35895606    -0.34800
O543        O  0.06692944  0.48909926  0.38899648    -0.36200
O544        O  0.09882096  0.46255299  0.43257681    -0.40500
C545        C  0.54462178  0.09055581  0.34945048    -0.14200
C546        C  0.53261069  0.06039231  0.37203417     0.16200
C547        C  0.54403627  0.05970222  0.40985330     0.02400
C548        C  0.57148037  0.08590684  0.42262283    -0.12700
C549        C  0.58819720  0.11243638  0.39793195    -0.03800
C550        C  0.57188739  0.11696731  0.36231797     0.01700
C551        C  0.51821675  0.02533214  0.35339805     0.08500
N552        N  0.53276930  0.02907826  0.43365637     0.64900
H553        H  0.58291425  0.08201388  0.45022547     0.17800
N554        N  0.58473121  0.14645895  0.33781716     0.75400
H555        H  0.53525763  0.09169425  0.32064391     0.09300
C556        C  0.48192825  0.00989659  0.36130982     0.03000
C557        C  0.47354238  0.97223196  0.35076147    -0.05700
C558        C  0.50063785  0.95016154  0.33154031    -0.24100
C559        C  0.53562268  0.96677737  0.32062598     0.12300
C560        C  0.54424887  0.00411578  0.33183312    -0.13200
N561        N  0.45359480  0.03199701  0.38005188     0.63900
H562        H  0.44612616  0.95987517  0.35834898     0.11800
N563        N  0.56404926  0.94499976  0.30167634     0.60600
H564        H  0.57234080  0.01578962  0.32583102     0.07900
O565        O  0.59941242  0.13808405  0.30597474    -0.40900
O566        O  0.57361433  0.17966610  0.34414906    -0.40100
O567        O  0.55241754  0.99983179  0.43365331    -0.40100
O568        O  0.50884902  0.03460308  0.46007386    -0.38700
O569        O  0.57024068  0.94892927  0.26674217    -0.38700
O570        O  0.58727027  0.92749542  0.32078416    -0.34800
O571        O  0.43517399  0.05469936  0.36117931    -0.36200
O572        O  0.44155672  0.02310212  0.41255424    -0.40500
C573        C  0.57494163  0.36667530  0.94742621    -0.14200
C574        C  0.60313505  0.38620744  0.92668974     0.16200
C575        C  0.62233392  0.41741588  0.94333219     0.02400
C576        C  0.61161639  0.43007064  0.97961966    -0.12700
C577        C  0.58158127  0.41213592  0.99975692    -0.03800
C578        C  0.56419623  0.37922167  0.98384782     0.01700
C579        C  0.60830061  0.37708986  0.88614240     0.08500
N580        N  0.65056672  0.43842669  0.92248617     0.64900
H581        H  0.62514438  0.45567300  0.99064119     0.17800
N582        N  0.53495887  0.35880679  0.00389872     0.75400
H583        H  0.56025983  0.34247099  0.93470758     0.09300
C584        C  0.63678730  0.35308605  0.87250272     0.03000
C585        C  0.64006461  0.34486740  0.83371880    -0.05700
C586        C  0.61481932  0.35984804  0.80827755    -0.24100
C587        C  0.58641786  0.38402580  0.82214055     0.12300
C588        C  0.58353359  0.39261853  0.86083408    -0.13200
N589        N  0.66142096  0.33560774  0.89781927     0.63900
H590        H  0.66143005  0.32545074  0.82371357     0.11800
N591        N  0.56060622  0.40041169  0.79725336     0.60600
H592        H  0.56165830  0.41128026  0.87127609     0.07900
O593        O  0.54377185  0.33544981  0.02835540    -0.40900
O594        O  0.50161419  0.35829579  0.99199764    -0.40100
O595        O  0.64143020  0.46731030  0.90494459    -0.40100
O596        O  0.68506920  0.43218401  0.92703634    -0.37800
O597        O  0.56876211  0.43219995  0.78329522    -0.38700
O598        O  0.52706512  0.38743584  0.79582640    -0.34800
O599        O  0.65305202  0.30296129  0.90962955    -0.36200
O600        O  0.69436033  0.34928520  0.90236978    -0.40500
loop_ 
_geom_bond_atom_site_label_1 
_geom_bond_atom_site_label_2 
_geom_bond_distance 
_geom_bond_site_symmetry_2 
_ccdc_geom_bond_type 
N1            N2   1.323       .  A
N1            C5   1.342       .  A
N1           Cu9   2.060       .  S
N2            C3   1.351       .  A
N2           Cu8   2.100       .  S
C3            C4   1.389       .  A
C3            H6   1.082   1_554  S
C4            C5   1.379       .  A
C4          C465   1.475       .  S
C5            H7   1.082       .  S
Cu8          N11   2.102       .  S
Cu9          N19   2.056       .  S
Cu10         N12   2.073       .  S
Cu10         N18   2.074       .  S
N11          N12   1.324       .  A
N11          C15   1.344       .  A
N12          C13   1.350       .  A
C13          C14   1.383       .  A
C13          H16   1.082       .  S
C14          C15   1.388       .  A
C14         C376   1.477   1_554  S
C15          H17   1.082   1_554  S
N18          N19   1.320       .  A
N18          C22   1.344       .  A
N19          C20   1.342       .  A
C20          C21   1.386       .  A
C20          H23   1.082       .  S
C21          C22   1.389       .  A
C21         C577   1.485   1_554  S
C22          H24   1.080       .  S
N25          N26   1.323       .  A
N25          C29   1.342       .  A
N25         Cu33   2.063       .  S
N26          C27   1.353       .  A
N26         Cu32   2.109       .  S
C27          C28   1.392       .  A
C27          H30   1.082       .  S
C28          C29   1.380       .  A
C28         C331   1.480       .  S
C29          H31   1.082       .  S
Cu32         N35   2.110       .  S
Cu33         N43   2.062       .  S
Cu34         N36   2.065       .  S
Cu34         N42   2.065       .  S
N35          N36   1.323       .  A
N35          C39   1.347       .  A
N36          C37   1.346       .  A
C37          C38   1.381       .  A
C37          H40   1.082       .  S
C38          C39   1.391       .  A
C38         C138   1.473       .  S
C39          H41   1.082       .  S
N42          N43   1.320       .  A
N42          C46   1.343       .  A
N43          C44   1.344       .  A
C44          C45   1.384       .  A
C44          H47   1.082       .  S
C45          C46   1.385       .  A
C45         C586   1.477       .  S
C46          H48   1.082       .  S
N49          N50   1.321       .  A
N49          C53   1.343       .  A
N49         Cu57   2.062       .  S
N50          C51   1.350       .  A
N50         Cu56   2.094       .  S
C51          C52   1.390       .  A
C51          H54   1.082       .  S
C52          C53   1.380       .  A
C52         C131   1.475       .  S
C53          H55   1.082       .  S
Cu56         N59   2.096       .  S
Cu57         N67   2.062       .  S
Cu58         N60   2.083       .  S
Cu58         N66   2.083       .  S
N59          N60   1.325       .  A
N59          C63   1.344       .  A
N60          C61   1.350       .  A
C61          C62   1.383       .  A
C61          H64   1.082       .  S
C62          C63   1.385       .  A
C62         C424   1.476       .  S
C63          H65   1.082       .  S
N66          N67   1.319       .  A
N66          C70   1.347       .  A
N67          C68   1.340       .  A
C68          C69   1.387       .  A
C68          H71   1.079       .  S
C69          C70   1.393       .  A
C69         C549   1.487       .  S
C70          H72   1.082       .  S
N73          N74   1.322       .  A
N73          C77   1.340       .  A
N73         Cu81   2.046       .  S
N74          C75   1.352       .  A
N74         Cu80   2.104       .  S
C75          C76   1.391       .  A
C75          H78   1.082       .  S
C76          C77   1.377       .  A
C76         C217   1.475       .  S
C77          H79   1.083       .  S
Cu80         N83   2.106       .  S
Cu81         N91   2.045       .  S
Cu82         N84   2.064       .  S
Cu82         N90   2.065       .  S
N83          N84   1.323       .  A
N83          C87   1.347       .  A
N84          C85   1.341       .  A
C85          C86   1.380       .  A
C85          H88   1.082       .  S
C86          C87   1.392       .  A
C86         C290   1.466       .  S
C87          H89   1.082       .  S
N90          N91   1.318       .  A
N90          C94   1.348       .  A
N91          C92   1.338       .  A
C92          C93   1.377       .  A
C92          H95   1.082       .  S
C93          C94   1.385       .  A
C93         C558   1.469       .  S
C94          H96   1.082       .  S
O97        Cu105   1.973       .  S
O97         C107   1.274       .  A
O98        Cu105   1.980   1_545  S
O98         C108   1.274       .  A
O99        Cu105   1.980       .  S
O99         C109   1.275       .  A
O100       Cu105   1.995       .  S
O100        C110   1.276       .  A
O101       Cu106   2.045       .  S
O101        C110   1.281       .  A
O102       Cu106   2.049       .  S
O102        C109   1.281       .  A
O103       Cu106   2.018   1_545  S
O103        C108   1.279       .  A
O104       Cu106   2.035       .  S
O104        C107   1.280       .  A
Cu105      Cu106   2.375       .  S
C107        C448   1.467       .  S
C108        C148   1.461       .  S
C109        C124   1.475   1_556  S
C110        C441   1.472       .  S
N111        N112   1.319       .  A
N111        C115   1.348   1_655  A
N111       Cu119   2.075       .  S
N112        C113   1.339   1_655  A
N112       Cu118   2.041       .  S
C113        C114   1.377       .  A
C113        H116   1.082       .  S
C114        C115   1.387       .  A
C114        C245   1.464       .  S
C115        H117   1.082       .  S
Cu118       N121   2.041       .  S
Cu119       N129   2.079       .  S
Cu120       N122   2.104       .  S
Cu120       N128   2.108   1_565  S
N121        N122   1.320       .  A
N121        C125   1.335       .  A
N122        C123   1.357       .  A
C123        C124   1.394       .  A
C123        H126   1.082       .  S
C124        C125   1.376       .  A
C125        H127   1.083       .  S
N128        N129   1.327   1_545  A
N128        C132   1.347       .  A
N129        C130   1.347   1_565  A
C130        C131   1.380       .  A
C130        H133   1.082       .  S
C131        C132   1.386       .  A
C132        H134   1.082       .  S
N135        N136   1.325       .  A
N135        C139   1.356       .  A
N135       Cu143   2.127       .  S
N136        C137   1.338       .  A
N136       Cu142   2.048       .  S
C137        C138   1.372       .  A
C137        H140   1.082       .  S
C138        C139   1.394       .  A
C139        H141   1.082       .  S
Cu142       N145   2.045       .  S
Cu143       N153   2.126       .  S
Cu144       N146   2.055       .  S
Cu144       N152   2.056       .  S
N145        N146   1.316       .  A
N145        C149   1.344       .  A
N146        C147   1.340       .  A
C147        C148   1.384       .  A
C147        H150   1.082       .  S
C148        C149   1.382       .  A
C149        H151   1.082       .  S
N152        N153   1.324       .  A
N152        C156   1.338       .  A
N153        C154   1.358       .  A
C154        C155   1.395   1_655  A
C154        H157   1.082   1_655  S
C155        C156   1.374   1_455  A
C155        C261   1.476       .  S
C156        H158   1.082   1_655  S
O159       Cu167   2.053       .  S
O159        C169   1.282       .  A
O160       Cu167   2.054       .  S
O160        C170   1.282       .  A
O161       Cu167   2.015       .  S
O161        C171   1.278       .  A
O162       Cu167   2.040   1_455  S
O162        C172   1.280       .  A
O163       Cu168   1.977       .  S
O163        C172   1.275       .  A
O164       Cu168   1.984   1_655  S
O164        C171   1.274       .  A
O165       Cu168   1.989   1_655  S
O165        C170   1.275       .  A
O166       Cu168   2.000       .  S
O166        C169   1.277   1_455  A
Cu167      Cu168   2.373   1_655  S
C169        C193   1.479   1_655  S
C170        C410   1.479       .  S
C171        C434   1.462       .  S
C172        C200   1.470       .  S
N173        N174   1.325       .  A
N173        C177   1.357       .  A
N173       Cu181   2.136       .  S
N174        C175   1.339       .  A
N174       Cu180   2.047   1_655  S
C175        C176   1.372       .  A
C175        H178   1.083       .  S
C176        C177   1.396       .  A
C176        C482   1.476       .  S
C177        H179   1.082       .  S
Cu180       N183   2.043       .  S
Cu181       N191   2.135   1_545  S
Cu182       N184   2.057       .  S
Cu182       N190   2.058   1_545  S
N183        N184   1.316       .  A
N183        C187   1.342       .  A
N184        C185   1.342       .  A
C185        C186   1.385       .  A
C185        H188   1.082       .  S
C186        C187   1.381       .  A
C186        C259   1.462       .  S
C187        H189   1.082       .  S
N190        N191   1.325   1_455  A
N190        C194   1.338       .  A
N191        C192   1.360       .  A
C192        C193   1.397   1_655  A
C192        H195   1.082       .  S
C193        C194   1.374       .  A
C194        H196   1.083       .  S
N197        N198   1.319       .  A
N197        C201   1.354       .  A
N197       Cu205   2.087       .  S
N198        C199   1.335       .  A
N198       Cu204   2.043       .  S
C199        C200   1.377       .  A
C199        H202   1.082       .  S
C200        C201   1.391       .  A
C201        H203   1.082       .  S
Cu204       N207   2.043       .  S
Cu205       N215   2.091       .  S
Cu206       N208   2.093       .  S
Cu206       N214   2.098       .  S
N207        N208   1.318       .  A
N207        C211   1.337       .  A
N208        C209   1.354       .  A
C209        C210   1.392       .  A
C209        H212   1.082       .  S
C210        C211   1.378       .  A
C210        C233   1.472       .  S
C211        H213   1.082       .  S
N214        N215   1.328       .  A
N214        C218   1.344       .  A
N215        C216   1.349       .  A
C216        C217   1.382       .  A
C216        H219   1.083       .  S
C217        C218   1.383       .  A
C218        H220   1.082       .  S
O221       Cu229   2.033       .  S
O221        C231   1.280       .  A
O222       Cu229   2.021       .  S
O222        C232   1.279       .  A
O223       Cu229   2.037       .  S
O223        C233   1.280       .  A
O224       Cu229   2.035       .  S
O224        C234   1.279       .  A
O225       Cu230   1.988       .  S
O225        C234   1.276       .  A
O226       Cu230   1.987       .  S
O226        C233   1.276       .  A
O227       Cu230   1.988       .  S
O227        C232   1.275       .  A
O228       Cu230   1.985       .  S
O228        C231   1.275       .  A
Cu229      Cu230   2.376       .  S
C231        C314   1.469       .  S
C232        C386   1.465       .  S
C234        C307   1.466       .  S
O235       Cu243   2.012       .  S
O235        C245   1.277       .  A
O236       Cu243   1.993       .  S
O236        C246   1.275       .  A
O237       Cu243   2.053   1_545  S
O237        C247   1.282       .  A
O238       Cu243   2.056       .  S
O238        C248   1.282       .  A
O239       Cu244   2.001       .  S
O239        C248   1.276       .  A
O240       Cu244   1.992   1_545  S
O240        C247   1.276       .  A
O241       Cu244   2.001       .  S
O241        C246   1.277       .  A
O242       Cu244   1.993       .  S
O242        C245   1.277       .  A
Cu243      Cu244   2.374       .  S
C246        C300   1.459       .  S
C247        C276   1.480       .  S
C248        C369   1.479       .  S
O249       Cu257   1.987       .  S
O249        C259   1.274       .  A
O250       Cu257   1.977       .  S
O250        C260   1.274       .  A
O251       Cu257   2.000       .  S
O251        C261   1.277       .  A
O252       Cu257   1.997       .  S
O252        C262   1.277       .  A
O253       Cu258   2.043       .  S
O253        C262   1.280       .  A
O254       Cu258   2.045       .  S
O254        C261   1.280       .  A
O255       Cu258   2.032       .  S
O255        C260   1.280       .  A
O256       Cu258   2.009       .  S
O256        C259   1.278       .  A
Cu257      Cu258   2.374       .  S
C260        C266   1.466       .  S
C262        C324   1.477       .  S
N263        N264   1.320       .  A
N263        C267   1.350       .  A
N263       Cu271   2.071       .  S
N264        C265   1.338       .  A
N264       Cu270   2.056   1_556  S
C265        C266   1.379       .  A
C265        H268   1.082       .  S
C266        C267   1.385       .  A
C267        H269   1.082       .  S
Cu270       N273   2.058       .  S
Cu271       N281   2.074   1_556  S
Cu272       N274   2.109       .  S
Cu272       N280   2.112       .  S
N273        N274   1.321       .  A
N273        C277   1.340       .  A
N274        C275   1.356       .  A
C275        C276   1.394       .  A
C275        H278   1.082       .  S
C276        C277   1.380       .  A
C277        H279   1.082       .  S
N280        N281   1.327       .  A
N280        C284   1.347       .  A
N281        C282   1.347       .  A
C282        C283   1.380       .  A
C282        H285   1.082       .  S
C283        C284   1.388       .  A
C283        C496   1.478       .  S
C284        H286   1.082       .  S
N287        N288   1.322       .  A
N287        C291   1.352       .  A
N287       Cu295   2.106       .  S
N288        C289   1.336       .  A
N288       Cu294   2.043       .  S
C289        C290   1.374       .  A
C289        H292   1.083       .  S
C290        C291   1.392       .  A
C291        H293   1.082       .  S
Cu294       N297   2.036       .  S
Cu295       N305   2.106   1_554  S
Cu296       N298   2.052       .  S
Cu296       N304   2.053   1_554  S
N297        N298   1.316       .  A
N297        C301   1.339       .  A
N298        C299   1.343       .  A
C299        C300   1.383       .  A
C299        H302   1.082       .  S
C300        C301   1.379       .  A
C301        H303   1.082       .  S
N304        N305   1.325       .  A
N304        C308   1.337       .  A
N305        C306   1.354       .  A
C306        C307   1.390       .  A
C306        H309   1.082       .  S
C307        C308   1.373       .  A
C308        H310   1.083       .  S
N311        N312   1.321       .  A
N311        C315   1.352       .  A
N311       Cu319   2.087   1_565  S
N312        C313   1.338       .  A
N312       Cu318   2.052   1_565  S
C313        C314   1.378       .  A
C313        H316   1.082       .  S
C314        C315   1.389       .  A
C315        H317   1.082       .  S
Cu318       N321   2.052       .  S
Cu319       N329   2.090       .  S
Cu320       N322   2.101       .  S
Cu320       N328   2.104       .  S
N321        N322   1.320       .  A
N321        C325   1.339       .  A
N322        C323   1.355       .  A
C323        C324   1.393       .  A
C323        H326   1.082       .  S
C324        C325   1.380       .  A
C325        H327   1.082       .  S
N328        N329   1.327       .  A
N328        C332   1.346       .  A
N329        C330   1.350       .  A
C330        C331   1.384       .  A
C330        H333   1.082       .  S
C331        C332   1.386       .  A
C332        H334   1.082       .  S
O335       Cu343   2.030   1_554  S
O335        C345   1.281       .  A
O336       Cu343   2.054   1_655  S
O336        C346   1.282   1_655  A
O337       Cu343   2.061       .  S
O337        C347   1.282       .  A
O338       Cu343   2.054   1_655  S
O338        C348   1.282       .  A
O339       Cu344   1.978   1_655  S
O339        C348   1.275       .  A
O340       Cu344   1.985       .  S
O340        C347   1.276       .  A
O341       Cu344   1.983       .  S
O341        C346   1.275       .  A
O342       Cu344   1.982       .  S
O342        C345   1.273   1_556  A
Cu343      Cu344   2.371       .  S
C345        C362   1.467       .  S
C346        C400   1.478   1_455  S
C347        C393   1.480       .  S
C348        C458   1.476       .  S
N349        N350   1.325       .  A
N349        C353   1.355       .  A
N349       Cu357   2.124       .  S
N350        C351   1.339       .  A
N350       Cu356   2.046       .  S
C351        C352   1.372       .  A
C351        H354   1.082       .  S
C352        C353   1.394       .  A
C352        C506   1.474       .  S
C353        H355   1.082       .  S
Cu356       N359   2.041       .  S
Cu357       N367   2.124       .  S
Cu358       N360   2.071       .  S
Cu358       N366   2.072       .  S
N359        N360   1.318       .  A
N359        C363   1.344       .  A
N360        C361   1.342       .  A
C361        C362   1.386       .  A
C361        H364   1.083       .  S
C362        C363   1.380       .  A
C363        H365   1.083       .  S
N366        N367   1.325       .  A
N366        C370   1.341       .  A
N367        C368   1.358       .  A
C368        C369   1.394       .  A
C368        H371   1.082       .  S
C369        C370   1.378       .  A
C370        H372   1.082       .  S
N373        N374   1.327       .  A
N373        C377   1.358       .  A
N373       Cu381   2.135       .  S
N374        C375   1.337       .  A
N374       Cu380   2.050       .  S
C375        C376   1.371       .  A
C375        H378   1.082       .  S
C376        C377   1.395       .  A
C377        H379   1.082   1_556  S
Cu380       N383   2.049       .  S
Cu381       N391   2.133       .  S
Cu382       N384   2.051       .  S
Cu382       N390   2.049       .  S
N383        N384   1.315       .  A
N383        C387   1.345       .  A
N384        C385   1.341       .  A
C385        C386   1.384       .  A
C385        H388   1.082       .  S
C386        C387   1.384       .  A
C387        H389   1.082       .  S
N390        N391   1.324       .  A
N390        C394   1.334       .  A
N391        C392   1.362       .  A
C392        C393   1.400       .  A
C392        H395   1.082       .  S
C393        C394   1.373       .  A
C394        H396   1.082       .  S
N397        N398   1.321       .  A
N397        C401   1.357       .  A
N397       Cu405   2.106       .  S
N398        C399   1.337   1_655  A
N398       Cu404   2.058       .  S
C399        C400   1.379   1_455  A
C399        H402   1.082       .  S
C400        C401   1.394       .  A
C401        H403   1.082       .  S
Cu404       N407   2.059       .  S
Cu405       N415   2.109       .  S
Cu406       N408   2.098       .  S
Cu406       N414   2.101       .  S
N407        N408   1.319       .  A
N407        C411   1.340   1_655  A
N408        C409   1.355       .  A
C409        C410   1.393       .  A
C409        H412   1.082       .  S
C410        C411   1.381   1_655  A
C411        H413   1.082       .  S
N414        N415   1.328       .  A
N414        C418   1.345       .  A
N415        C416   1.353       .  A
C416        C417   1.388       .  A
C416        H419   1.082       .  S
C417        C418   1.385       .  A
C417        C472   1.485       .  S
C418        H420   1.082       .  S
N421        N422   1.324       .  A
N421        C425   1.356   1_565  A
N421       Cu429   2.119       .  S
N422        C423   1.338       .  A
N422       Cu428   2.050       .  S
C423        C424   1.374   1_565  A
C423        H426   1.082       .  S
C424        C425   1.393       .  A
C425        H427   1.082       .  S
Cu428       N431   2.046       .  S
Cu429       N439   2.119       .  S
Cu430       N432   2.060       .  S
Cu430       N438   2.062       .  S
N431        N432   1.317       .  A
N431        C435   1.343       .  A
N432        C433   1.341       .  A
C433        C434   1.385       .  A
C433        H436   1.083       .  S
C434        C435   1.381       .  A
C435        H437   1.083       .  S
N438        N439   1.325       .  A
N438        C442   1.339       .  A
N439        C440   1.356       .  A
C440        C441   1.392       .  A
C440        H443   1.082       .  S
C441        C442   1.376       .  A
C442        H444   1.082       .  S
N445        N446   1.319       .  A
N445        C449   1.352       .  A
N445       Cu453   2.079       .  S
N446        C447   1.335       .  A
N446       Cu452   2.044       .  S
C447        C448   1.378       .  A
C447        H450   1.082       .  S
C448        C449   1.389       .  A
C449        H451   1.082       .  S
Cu452       N455   2.044       .  S
Cu453       N463   2.083       .  S
Cu454       N456   2.102       .  S
Cu454       N462   2.107       .  S
N455        N456   1.319       .  A
N455        C459   1.335       .  A
N456        C457   1.357       .  A
C457        C458   1.395       .  A
C457        H460   1.082       .  S
C458        C459   1.378       .  A
C459        H461   1.082       .  S
N462        N463   1.329       .  A
N462        C466   1.346   1_556  A
N463        C464   1.347       .  A
C464        C465   1.380   1_556  A
C464        H467   1.082       .  S
C465        C466   1.385       .  A
C466        H468   1.082       .  S
N469        N470   1.324       .  A
N469        C473   1.342       .  A
N469       Cu477   2.068       .  S
N470        C471   1.355       .  A
N470       Cu476   2.118       .  S
C471        C472   1.393       .  A
C471        H474   1.082       .  S
C472        C473   1.381       .  A
C473        H475   1.082       .  S
Cu476       N479   2.119       .  S
Cu477       N487   2.065       .  S
Cu478       N480   2.067       .  S
Cu478       N486   2.067       .  S
N479        N480   1.323       .  A
N479        C483   1.350       .  A
N480        C481   1.346       .  A
C481        C482   1.381       .  A
C481        H484   1.082       .  S
C482        C483   1.394       .  A
C483        H485   1.082       .  S
N486        N487   1.317       .  A
N486        C490   1.345       .  A
N487        C488   1.342       .  A
C488        C489   1.390       .  A
C488        H491   1.079       .  S
C489        C490   1.391       .  A
C489        C530   1.493   1_655  S
C490        H492   1.078       .  S
N493        N494   1.323       .  A
N493        C497   1.342       .  A
N493       Cu501   2.054       .  S
N494        C495   1.352       .  A
N494       Cu500   2.114       .  S
C495        C496   1.392       .  A
C495        H498   1.082       .  S
C496        C497   1.377       .  A
C497        H499   1.082       .  S
Cu500       N503   2.115       .  S
Cu501       N511   2.050       .  S
Cu502       N504   2.061       .  S
Cu502       N510   2.062       .  S
N503        N504   1.324       .  A
N503        C507   1.348       .  A
N504        C505   1.346       .  A
C505        C506   1.379       .  A
C505        H508   1.082       .  S
C506        C507   1.391       .  A
C507        H509   1.082       .  S
N510        N511   1.319       .  A
N510        C514   1.345       .  A
N511        C512   1.341       .  A
C512        C513   1.381       .  A
C512        H515   1.083       .  S
C513        C514   1.386       .  A
C513        C521   1.478       .  S
C514        H516   1.081       .  S
C517        C518   1.402       .  A
C517        C522   1.399       .  A
C517        H527   1.082       .  S
C518        C519   1.410       .  A
C518        C523   1.482       .  S
C519        C520   1.399       .  A
C519        N524   1.429       .  S
C520        C521   1.403       .  A
C520        H525   1.083       .  S
C521        C522   1.414       .  A
C522        N526   1.429       .  S
C523        C528   1.406       .  A
C523        C532   1.403       .  A
N524        O539   1.262       .  A
N524        O540   1.262       .  A
N526        O537   1.262       .  A
N526        O538   1.262       .  A
C528        C529   1.398       .  A
C528        N533   1.429       .  S
C529        C530   1.410       .  A
C529        H534   1.076       .  S
C530        C531   1.416       .  A
C531        C532   1.402       .  A
C531        N535   1.429       .  S
C532        H536   1.080       .  S
N533        O543   1.262       .  A
N533        O544   1.262       .  A
N535        O541   1.262   1_455  A
N535        O542   1.262       .  A
C545        C546   1.399       .  A
C545        C550   1.400       .  A
C545        H555   1.082       .  S
C546        C547   1.410       .  A
C546        C551   1.474       .  S
C547        C548   1.398       .  A
C547        N552   1.430       .  S
C548        C549   1.406       .  A
C548        H553   1.080       .  S
C549        C550   1.414       .  A
C550        N554   1.430       .  S
C551        C556   1.405       .  A
C551        C560   1.404       .  A
N552        O567   1.262   1_545  A
N552        O568   1.262       .  A
N554        O565   1.262       .  A
N554        O566   1.262       .  A
C556        C557   1.400   1_545  A
C556        N561   1.429       .  S
C557        C558   1.406       .  A
C557        H562   1.083       .  S
C558        C559   1.405       .  A
C559        C560   1.396   1_565  A
C559        N563   1.428       .  S
C560        H564   1.084       .  S
N561        O571   1.262       .  A
N561        O572   1.262       .  A
N563        O569   1.262       .  A
N563        O570   1.262       .  A
C573        C574   1.400       .  A
C573        C578   1.401       .  A
C573        H583   1.083       .  S
C574        C575   1.404       .  A
C574        C579   1.472       .  S
C575        C576   1.398       .  A
C575        N580   1.429       .  S
C576        C577   1.409       .  A
C576        H581   1.081       .  S
C577        C578   1.412       .  A
C578        N582   1.429   1_556  S
C579        C584   1.405       .  A
C579        C588   1.401       .  A
N580        O595   1.262       .  A
N580        O596   1.262       .  A
N582        O593   1.262       .  A
N582        O594   1.262   1_554  A
C584        C585   1.400       .  A
C584        N589   1.429       .  S
C585        C586   1.407       .  A
C585        H590   1.083       .  S
C586        C587   1.409       .  A
C587        C588   1.398       .  A
C587        N591   1.428       .  S
C588        H592   1.084       .  S
N589        O599   1.262       .  A
N589        O600   1.261       .  A
N591        O597   1.262       .  A
N591        O598   1.262       .  A
