geometry optimzed in LAMMPS
_audit_creation_date              2020-11-30 
_audit_creation_method            'lammps2cif' 
_symmetry_space_group_name_H-M    'P1' 
_symmetry_Int_Tables_number       1 
_symmetry_cell_setting            triclinic 
loop_ 
_symmetry_equiv_pos_as_xyz 
  x,y,z 
_cell_length_a                    60.70696642 
_cell_length_b                    60.436283650712426 
_cell_length_c                    60.64422044435484 
_cell_angle_alpha                 89.69716799083494 
_cell_angle_beta                  90.22687219704676 
_cell_angle_gamma                 89.93758366946197 
loop_ 
_atom_site_label 
_atom_site_type_symbol 
_atom_site_fract_x 
_atom_site_fract_y 
_atom_site_fract_z 
_atom_site_charge 
O1          O  0.75274490  0.78636879  0.72572281    -0.88500
C2          C  0.69596992  0.75097677  0.73454857     0.87500
Mg3        Mg  0.78091037  0.77255231  0.70941667     1.58100
O4          O  0.72800317  0.75614846  0.78251872    -0.88300
O5          O  0.74415946  0.79952931  0.75829701    -0.75600
C6          C  0.79179080  0.67132095  0.75235131     0.92500
O7          O  0.73134527  0.75020042  0.69367088    -0.75400
O8          O  0.79649615  0.68277881  0.73537942    -0.82900
Mg9        Mg  0.72167174  0.78360296  0.70889011     1.58000
C10         C  0.74166904  0.70324153  0.82326941     0.92500
O11         O  0.70984336  0.81793854  0.72125157    -0.81200
H12         H  0.74378680  0.77518347  0.80433644    -0.06500
C13         C  0.73468535  0.69912200  0.74838078     0.87400
O14         O  0.79622714  0.76303219  0.74288856    -0.75700
O15         O  0.70837159  0.76693324  0.73772099    -0.88500
O16         O  0.72520510  0.71415809  0.81571477    -0.81300
C17         C  0.66913611  0.75531008  0.79302802     0.92600
C18         C  0.69908155  0.82618112  0.73730886     0.92400
Mg19       Mg  0.77016008  0.71416908  0.78026169     1.58000
O20         O  0.78063179  0.67944082  0.76812395    -0.81200
O21         O  0.76087074  0.74780698  0.79533406    -0.75400
O22         O  0.67660435  0.77128791  0.78126551    -0.81300
O23         O  0.73559460  0.80004876  0.67748963    -0.83000
O24         O  0.81437926  0.72597735  0.71124714    -0.81300
C25         C  0.74396315  0.76025297  0.79459254     0.86900
O26         O  0.78256410  0.73067624  0.75192366    -0.88400
O27         O  0.73894673  0.71145064  0.76409432    -0.88500
O28         O  0.74677163  0.69832371  0.73129213    -0.75600
Mg29       Mg  0.71100315  0.78410566  0.76867144     1.58000
O30         O  0.68086141  0.73844426  0.79769442    -0.83000
H31         H  0.77118399  0.80899454  0.74106546    -0.06700
O32         O  0.76374697  0.74165913  0.70738234    -0.88200
H33         H  0.74871573  0.72299519  0.68475825    -0.06500
H34         H  0.80527772  0.74590086  0.77030978    -0.06700
C35         C  0.74821876  0.73775409  0.69471772     0.86800
C36         C  0.75654341  0.79883887  0.74142225     0.87400
C37         C  0.79524283  0.74625944  0.75557794     0.87500
H38         H  0.71987627  0.68925587  0.74890443    -0.06700
O39         O  0.69532659  0.73445979  0.74769243    -0.75700
Mg40       Mg  0.78012530  0.71349799  0.72149064     1.58000
H41         H  0.68573316  0.75085520  0.71998069    -0.06700
C42         C  0.75316285  0.79602539  0.66670179     0.92500
O43         O  0.81155422  0.75813486  0.69351495    -0.82900
C44         C  0.82284203  0.74143965  0.69974569     0.92500
O45         O  0.69476182  0.81514121  0.75472436    -0.82900
Mg46       Mg  0.71138075  0.72498854  0.78112123     1.58200
O47         O  0.76894498  0.78463241  0.67490346    -0.81300
O48         O  0.75810000  0.69824879  0.81141859    -0.83000
C49         C  0.64571881  0.02512637  0.74166540     0.86300
C50         C  0.62941447  0.02353879  0.76097009    -0.53900
C51         C  0.61581712  0.00566060  0.76033774     0.09200
C52         C  0.61831567  0.99164085  0.73931773     0.20200
C53         C  0.65696941  0.00222429  0.74100429    -0.54700
C54         C  0.64282029  0.98445212  0.73932123     0.09300
C55         C  0.63017635  0.02561957  0.72152124    -0.54200
C56         C  0.61588315  0.00830613  0.72015864     0.09900
H57         H  0.62870035  0.03522756  0.77444097     0.14400
H58         H  0.60622138  0.97804614  0.73794782     0.00100
H59         H  0.67472287  0.00035404  0.74203598     0.14700
H60         H  0.62969341  0.03909845  0.70966354     0.14500
O61         O  0.77443801  0.28412432  0.76884043    -0.88500
C62         C  0.77987380  0.27123414  0.70365099     0.87500
Mg63       Mg  0.77743611  0.25809283  0.79296946     1.58100
O64         O  0.72596472  0.28285312  0.72046536    -0.88300
O65         O  0.75092041  0.30949673  0.75754312    -0.75600
C66         C  0.71186113  0.17838714  0.75473339     0.92500
O67         O  0.80367764  0.24748324  0.74465618    -0.75400
O68         O  0.72857748  0.18093516  0.76725121    -0.82900
Mg69       Mg  0.79999869  0.28550018  0.74462496     1.58000
C70         C  0.67363265  0.24442057  0.70145939     0.92500
O71         O  0.79965471  0.32383593  0.74433387    -0.81200
H72         H  0.70506688  0.30309067  0.73580795    -0.06500
C73         C  0.74167183  0.21762348  0.71530894     0.87400
O74         O  0.73970338  0.25587437  0.79560913    -0.75700
O75         O  0.77547251  0.28336655  0.71940602    -0.88500
O76         O  0.68928581  0.25520117  0.69242666    -0.81300
C77         C  0.73921504  0.30074459  0.66514637     0.92600
C78         C  0.79129742  0.33961368  0.73300408     0.92400
Mg79       Mg  0.70392776  0.23291264  0.74432663     1.58000
O80         O  0.70291516  0.19461736  0.74455236    -0.81200
O81         O  0.70145151  0.27079696  0.74418941    -0.75400
O82         O  0.74974168  0.30963214  0.68108995    -0.81300
O83         O  0.82693221  0.28666828  0.77043840    -0.83000
O84         O  0.75497370  0.20681379  0.80606614    -0.81300
C85         C  0.71048017  0.28629322  0.73323331     0.86900
O86         O  0.72891704  0.23391696  0.76902614    -0.88400
O87         O  0.72922546  0.23321714  0.71968324    -0.88500
O88         O  0.75279620  0.20763778  0.73011550    -0.75600
Mg89       Mg  0.75044262  0.30828576  0.71942765     1.58000
O90         O  0.72668882  0.28410988  0.66795337    -0.83000
H91         H  0.75870273  0.30411751  0.78974285    -0.06700
O92         O  0.77823725  0.23449164  0.76681559    -0.88200
H93         H  0.80006018  0.21486216  0.75190933    -0.06500
H94         H  0.70789696  0.24667455  0.79086378    -0.06700
C95         C  0.79424986  0.23152056  0.75460240     0.86800
C96         C  0.76149062  0.29945345  0.77279171     0.87400
C97         C  0.72477374  0.24525672  0.78542317     0.87500
H98         H  0.74375179  0.21287939  0.69827200    -0.06700
O99         O  0.76510126  0.26026810  0.69360137    -0.75700
Mg100      Mg  0.75377552  0.20884891  0.76791174     1.58000
H101        H  0.79686897  0.26938715  0.69871166    -0.06700
C102        C  0.83045627  0.27362360  0.78657567     0.92500
O103        O  0.77939827  0.23100010  0.81892686    -0.82900
C104        C  0.76652633  0.21464120  0.82182803     0.92500
O105        O  0.77538462  0.33637397  0.71967570    -0.82900
Mg106      Mg  0.72727865  0.25830204  0.69497139     1.58200
O107        O  0.81551621  0.26095323  0.79428357    -0.81300
O108        O  0.67660445  0.23340764  0.71914275    -0.83000
C109        C  0.89995787  0.50027269  0.77454909     0.86300
C110        C  0.88263743  0.48204131  0.77125637    -0.53900
C111        C  0.86872060  0.48482079  0.75372786     0.09200
C112        C  0.87329133  0.50649452  0.74083004     0.20200
C113        C  0.91169222  0.50227270  0.75220193    -0.54700
C114        C  0.89793362  0.50522950  0.73440860     0.09300
C115        C  0.88545860  0.52125058  0.77612486    -0.54200
C116        C  0.87204484  0.52497508  0.75830135     0.09900
H117        H  0.88118727  0.46794949  0.78227983     0.14400
H118        H  0.86196432  0.50931389  0.72672163     0.00100
H119        H  0.92944924  0.50093888  0.75057325     0.14700
H120        H  0.88517543  0.53211477  0.79027497     0.14500
C121        C  0.74586801  0.86607741  0.47267622     0.86300
C122        C  0.76451017  0.88308916  0.47569151    -0.53900
C123        C  0.76365529  0.89532855  0.49473039     0.09200
C124        C  0.74377109  0.88863275  0.50964223     0.20200
C125        C  0.74841847  0.85195032  0.49398211    -0.54700
C126        C  0.74697021  0.86348224  0.51333400     0.09300
C127        C  0.72471907  0.87935595  0.47555291    -0.54200
C128        C  0.72274193  0.89052336  0.49487444     0.09900
H129        H  0.77798195  0.88467310  0.46406302     0.14400
H130        H  0.74263013  0.89796158  0.52526646     0.00100
H131        H  0.75288373  0.83461418  0.49402822     0.14700
H132        H  0.71170525  0.87925835  0.46319668     0.14500
O133        O  0.70936567  0.73646828  0.23303843    -0.88500
C134        C  0.74373336  0.74438109  0.29039123     0.87500
Mg135      Mg  0.72413341  0.72090948  0.20446808     1.58100
O136        O  0.73682709  0.79217514  0.25821836    -0.88300
O137        O  0.69369584  0.76771400  0.24245239    -0.75600
C138        C  0.82583451  0.76421797  0.19765581     0.92500
O139        O  0.74566999  0.70417899  0.25436037    -0.75400
O140        O  0.81545589  0.74642117  0.19331546    -0.82900
Mg141      Mg  0.71214888  0.71879031  0.26402957     1.58000
C142        C  0.78815302  0.83536255  0.24671052     0.92500
O143        O  0.67740147  0.72925922  0.27718643    -0.81200
H144        H  0.71744824  0.81276578  0.24097225    -0.06500
C145        C  0.79523137  0.76008967  0.25322305     0.87400
O146        O  0.73392026  0.75444482  0.18971587    -0.75700
O147        O  0.72778950  0.74735388  0.27789268    -0.88500
O148        O  0.77634362  0.82701789  0.26200394    -0.81300
C149        C  0.73762094  0.80108746  0.31779009     0.92600
C150        C  0.66915038  0.74463522  0.28899767     0.92400
Mg151      Mg  0.78091480  0.79184856  0.21711135     1.58000
O152        O  0.81643481  0.78048593  0.20725474    -0.81200
O153        O  0.74613405  0.80523857  0.22558229    -0.75400
O154        O  0.72245912  0.78855476  0.31026277    -0.81300
O155        O  0.69678259  0.68827850  0.24926339    -0.83000
O156        O  0.77337353  0.71983480  0.17302355    -0.81300
C157        C  0.73284616  0.80382642  0.24177856     0.86900
O158        O  0.76634296  0.76302914  0.20330551    -0.88400
O159        O  0.78260415  0.77544655  0.24829924    -0.88500
O160        O  0.79691795  0.74286734  0.24139994    -0.75600
Mg161      Mg  0.70944187  0.77762511  0.27567903     1.58000
O162        O  0.75301159  0.80821565  0.30552089    -0.83000
H163        H  0.68548061  0.75049464  0.21496692    -0.06700
O164        O  0.75474140  0.71841891  0.22236955    -0.88200
H165        H  0.77307500  0.69543112  0.23751390    -0.06500
H166        H  0.75130839  0.78144663  0.18035044    -0.06700
C167        C  0.75834573  0.70543648  0.23778993     0.86800
C168        C  0.69567916  0.75128583  0.22956472     0.87400
C169        C  0.75085022  0.76676377  0.19048649     0.87500
H170        H  0.80450226  0.76100052  0.26840977    -0.06700
O171        O  0.75971021  0.75801364  0.29133347    -0.75700
Mg172      Mg  0.78365225  0.73233071  0.20752492     1.58000
H173        H  0.74431103  0.72964854  0.30041656    -0.06700
C174        C  0.70043882  0.67800026  0.23137498     0.92500
O175        O  0.73948423  0.70546940  0.17353163    -0.82900
C176        C  0.75771676  0.70922999  0.16376740     0.92500
O177        O  0.67950110  0.76257101  0.29267651    -0.82900
Mg178      Mg  0.76755439  0.79197867  0.27543238     1.58200
O179        O  0.71165492  0.68645178  0.21567455    -0.81300
O180        O  0.79509759  0.82365385  0.23080128    -0.83000
C181        C  0.73484822  0.60923341  0.99898960     0.86300
C182        C  0.73440060  0.62354861  0.97786760    -0.53900
C183        C  0.75227011  0.63704205  0.97491189     0.09200
C184        C  0.76918237  0.63493633  0.99396627     0.20200
C185        C  0.75644202  0.59666507  0.99826731    -0.54700
C186        C  0.77442045  0.60969972  0.99561675     0.09300
C187        C  0.73792100  0.62663193  0.01720897    -0.54200
C188        C  0.75576389  0.64033441  0.01496790     0.09900
H189        H  0.72068968  0.62356381  0.96637380     0.14400
H190        H  0.78354089  0.64571994  0.99148722     0.00100
H191        H  0.75748351  0.57875367  0.99962134     0.14700
H192        H  0.72651634  0.62828708  0.03078318     0.14500
C193        C  0.52109495  0.74388110  0.36821278     0.86300
C194        C  0.51597413  0.72576324  0.38513965    -0.53900
C195        C  0.49740188  0.72899831  0.39745061     0.09200
C196        C  0.48520260  0.75081120  0.39138376     0.20200
C197        C  0.49966850  0.74598688  0.35421047    -0.54700
C198        C  0.48069972  0.74925135  0.36626477     0.09300
C199        C  0.52084144  0.76570596  0.38094812    -0.54200
C200        C  0.50257297  0.76946230  0.39317289     0.09900
H201        H  0.52617031  0.71106542  0.38683603     0.14400
H202        H  0.47036693  0.75385037  0.40150839     0.00100
H203        H  0.49941774  0.74593822  0.33634282     0.14700
H204        H  0.53352332  0.77824339  0.37915380     0.14500
C205        C  0.13991038  0.97885803  0.75311516     0.86300
C206        C  0.12256305  0.97843525  0.73461270    -0.53900
C207        C  0.10795690  0.99560322  0.73443281     0.09200
C208        C  0.11160554  0.01177656  0.75389469     0.20200
C209        C  0.15050736  0.00193598  0.75168920    -0.54700
C210        C  0.13589521  0.01936323  0.75177851     0.09300
C211        C  0.12557719  0.97960330  0.77393777    -0.54200
C212        C  0.11151460  0.99715547  0.77503179     0.09900
H213        H  0.12175660  0.96542166  0.72238857     0.14400
H214        H  0.09936104  0.02535739  0.75404022     0.00100
H215        H  0.16821484  0.00421624  0.75076994     0.14700
H216        H  0.12650852  0.96754311  0.78719667     0.14500
C217        C  0.74881441  0.14232910  0.97203302     0.86300
C218        C  0.72843040  0.12718807  0.97139783    -0.53900
C219        C  0.72580619  0.11392048  0.98955635     0.09200
C220        C  0.74478996  0.11624525  0.00659467     0.20200
C221        C  0.74720684  0.15462599  0.99397872    -0.54700
C222        C  0.74550449  0.14130135  0.01223400     0.09300
C223        C  0.76763001  0.12555863  0.97514947    -0.54200
C224        C  0.76598904  0.11202003  0.99312453     0.09900
H225        H  0.71704577  0.12660479  0.95757420     0.14400
H226        H  0.74309659  0.10517528  0.02111966     0.00100
H227        H  0.74786031  0.17254992  0.99499736     0.14700
H228        H  0.78103597  0.12382154  0.96354248     0.14500
C229        C  0.36281606  0.51911051  0.75238569     0.86300
C230        C  0.37846163  0.51546804  0.73284904    -0.53900
C231        C  0.39176545  0.49733770  0.73479742     0.09200
C232        C  0.38945785  0.48512035  0.75709074     0.20200
C233        C  0.35107327  0.49682443  0.75533954    -0.54700
C234        C  0.36472521  0.47884466  0.75817320     0.09300
C235        C  0.37891401  0.52077326  0.77196155    -0.54200
C236        C  0.39275666  0.50316507  0.77474828     0.09900
H237        H  0.37868076  0.52588877  0.71822673     0.14400
H238        H  0.40115129  0.47124221  0.75922807     0.00100
H239        H  0.33325223  0.49543522  0.75478684     0.14700
H240        H  0.38006251  0.53517436  0.78244169     0.14500
C241        C  0.72792594  0.39617023  0.49097013     0.86300
C242        C  0.72770042  0.38023125  0.51093957    -0.53900
C243        C  0.74501777  0.36564226  0.51232683     0.09200
C244        C  0.76116125  0.36854441  0.49285145     0.20200
C245        C  0.75024076  0.40760116  0.49208979    -0.54700
C246        C  0.76762980  0.39342840  0.49323098     0.09300
C247        C  0.72942697  0.38015194  0.47140471    -0.54200
C248        C  0.74683315  0.36578849  0.47194734     0.09900
H249        H  0.71472103  0.38041743  0.52311929     0.14400
H250        H  0.77498744  0.35685679  0.49320525     0.00100
H251        H  0.75214162  0.42546344  0.49259014     0.14700
H252        H  0.71734733  0.37978234  0.45820663     0.14500
C253        C  0.61057776  0.50797542  0.27508543     0.86300
C254        C  0.62343123  0.52904165  0.26854533    -0.53900
C255        C  0.63500121  0.52766118  0.24929602     0.09200
C256        C  0.63148378  0.50554823  0.23743155     0.20200
C257        C  0.59533108  0.50494693  0.25513525    -0.54700
C258        C  0.60605526  0.50330105  0.23554282     0.09300
C259        C  0.62725630  0.48892779  0.27350156    -0.54200
C260        C  0.63871424  0.48742227  0.25406182     0.09900
H261        H  0.62209384  0.54468652  0.27699121     0.14400
H262        H  0.64029795  0.50541771  0.22176908     0.00100
H263        H  0.57748768  0.50445490  0.25628220     0.14700
H264        H  0.62897024  0.47689375  0.28673771     0.14500
C265        C  0.26647543  0.59980271  0.50260112     0.86300
C266        C  0.26336824  0.61755247  0.52038514    -0.53900
C267        C  0.24733454  0.63290534  0.51631346     0.09200
C268        C  0.23600748  0.62942399  0.49361861     0.20200
C269        C  0.24351897  0.59004857  0.49889177    -0.54700
C270        C  0.22732891  0.60529836  0.49455777     0.09300
C271        C  0.27104997  0.61369695  0.48174958    -0.54200
C272        C  0.25500539  0.62872443  0.47652581     0.09900
H273        H  0.27328858  0.61829167  0.53519349     0.14400
H274        H  0.22336557  0.64208817  0.48974584     0.00100
H275        H  0.24024492  0.57242022  0.50011541     0.14700
H276        H  0.28548593  0.61146259  0.47148657     0.14500
C277        C  0.99555507  0.72907523  0.11234181     0.86300
C278        C  0.97778418  0.73174888  0.13015833    -0.53900
C279        C  0.98088297  0.74868171  0.14464424     0.09200
C280        C  0.00282270  0.76115188  0.14051246     0.20200
C281        C  0.99786974  0.75204899  0.10167975    -0.54700
C282        C  0.00138102  0.76905530  0.11619979     0.09300
C283        C  0.01667415  0.72612518  0.12615276    -0.54200
C284        C  0.02101524  0.74306447  0.14032541     0.09900
H285        H  0.96366999  0.72092270  0.13151607     0.14400
H286        H  0.00591858  0.77442733  0.15263601     0.00100
H287        H  0.99657635  0.75464040  0.08398909     0.14700
H288        H  0.02781349  0.71218697  0.12444096     0.14500
O289        O  0.25891555  0.71755556  0.26834092    -0.88500
C290        C  0.20279625  0.75326042  0.26054335     0.87500
Mg291      Mg  0.28671805  0.73074657  0.28543284     1.58100
O292        O  0.23436910  0.74869964  0.21261927    -0.88300
O293        O  0.25049977  0.70457526  0.23563214    -0.75600
C294        C  0.29749072  0.83378138  0.24410011     0.92500
O295        O  0.23766533  0.75272694  0.30149650    -0.75400
O296        O  0.30152836  0.82298554  0.26183029    -0.82900
Mg297      Mg  0.22810623  0.71981138  0.28510247     1.58000
C298        C  0.24710397  0.80210816  0.17188230     0.92500
O299        O  0.21678280  0.68590158  0.27207337    -0.81200
H300        H  0.25013125  0.72980752  0.19077033    -0.06500
C301        C  0.24094251  0.80539117  0.24715659     0.87400
O302        O  0.30238004  0.74135022  0.25256873    -0.75700
O303        O  0.21512647  0.73732947  0.25701821    -0.88500
O304        O  0.23070748  0.79160614  0.17998897    -0.81300
C305        C  0.17525432  0.74950472  0.20339953     0.92600
C306        C  0.20555680  0.67790017  0.25622429     0.92400
Mg307      Mg  0.27665599  0.79056537  0.21530240     1.58000
O308        O  0.28755681  0.82500809  0.22774811    -0.81200
O309        O  0.26726931  0.75701592  0.20016026    -0.75400
O310        O  0.18320821  0.73399529  0.21536428    -0.81300
O311        O  0.24155310  0.70207296  0.31531246    -0.83000
O312        O  0.32049411  0.77844679  0.28811878    -0.81300
C313        C  0.25032214  0.74466007  0.20062978     0.86900
O314        O  0.28947777  0.77428761  0.24411644    -0.88400
O315        O  0.24528424  0.79335721  0.23127325    -0.88500
O316        O  0.25285296  0.80576473  0.26446866    -0.75600
Mg317      Mg  0.21733846  0.72055616  0.22605141     1.58000
O318        O  0.18694927  0.76595445  0.19745639    -0.83000
H319        H  0.27750140  0.69506204  0.25308867    -0.06700
O320        O  0.26992153  0.76194350  0.28819782    -0.88200
H321        H  0.25476673  0.77981333  0.31127439    -0.06500
H322        H  0.31235789  0.75915524  0.22596799    -0.06700
C323        C  0.25438433  0.76536467  0.30087381     0.86800
C324        C  0.26284636  0.70517973  0.25262404     0.87400
C325        C  0.30198843  0.75856585  0.24043023     0.87500
H326        H  0.22615423  0.81529065  0.24661157    -0.06700
O327        O  0.20193913  0.76995871  0.24765458    -0.75700
Mg328      Mg  0.28615038  0.79088784  0.27517584     1.58000
H329        H  0.19278517  0.75319277  0.27524703    -0.06700
C330        C  0.25847923  0.70586144  0.32712777     0.92500
O331        O  0.31698188  0.74420493  0.30172508    -0.82900
C332        C  0.32816444  0.76174245  0.29875646     0.92500
O333        O  0.20061823  0.68932865  0.23920632    -0.82900
Mg334      Mg  0.21752478  0.77979417  0.21426420     1.58200
O335        O  0.27437500  0.71770685  0.31988063    -0.81300
O336        O  0.26417822  0.80627530  0.18340367    -0.83000
C337        C  0.25157772  0.86050808  0.97269659     0.86300
C338        C  0.27036863  0.87665557  0.97733653    -0.53900
C339        C  0.26818613  0.88901787  0.99597108     0.09200
C340        C  0.24663146  0.88384904  0.00885446     0.20200
C341        C  0.24942336  0.84647771  0.99418746    -0.54700
C342        C  0.24740895  0.85855353  0.01328768     0.09300
C343        C  0.23048660  0.87443998  0.97331435    -0.54200
C344        C  0.22744562  0.88655294  0.99190754     0.09900
H345        H  0.28467076  0.87795489  0.96668699     0.14400
H346        H  0.24469019  0.89388981  0.02398345     0.00100
H347        H  0.24830270  0.82861357  0.99449285     0.14700
H348        H  0.21800485  0.87367855  0.96045237     0.14500
C349        C  0.47391176  0.24756293  0.65386237     0.86300
C350        C  0.47195757  0.23081966  0.63495026    -0.53900
C351        C  0.48932013  0.23043143  0.62086679     0.09200
C352        C  0.50651979  0.24891593  0.62564816     0.20200
C353        C  0.49673646  0.24305364  0.66412565    -0.54700
C354        C  0.51419114  0.24451516  0.64975155     0.09300
C355        C  0.47621574  0.26971085  0.64139978    -0.54200
C356        C  0.49318902  0.27075050  0.62676098     0.09900
H357        H  0.45826311  0.21956966  0.63279005     0.14400
H358        H  0.51980059  0.25014846  0.61328674     0.00100
H359        H  0.49867712  0.23889366  0.68143642     0.14700
H360        H  0.46505369  0.28353515  0.64367595     0.14500
O361        O  0.23628296  0.28993755  0.77278099    -0.88500
C362        C  0.29175120  0.25410737  0.76719431     0.87500
Mg363      Mg  0.20851552  0.27688516  0.79035175     1.58100
O364        O  0.26098930  0.25920453  0.71841817    -0.88300
O365        O  0.24515399  0.30348608  0.74040143    -0.75600
C366        C  0.19412141  0.17634498  0.74908685     0.92500
O367        O  0.25719656  0.25485750  0.80654544    -0.75400
O368        O  0.19073728  0.18688625  0.76691572    -0.82900
Mg369      Mg  0.26697762  0.28794875  0.79007099     1.58000
C370        C  0.24726485  0.20736186  0.67858849     0.92500
O371        O  0.27913436  0.32174089  0.77689359    -0.81200
H372        H  0.24566730  0.27897852  0.69681219    -0.06500
C373        C  0.25179186  0.20197503  0.75271080     0.87400
O374        O  0.19139118  0.26769448  0.75796057    -0.75700
O375        O  0.28015801  0.27040294  0.76274376    -0.88500
O376        O  0.26414987  0.21589384  0.68776192    -0.81300
C377        C  0.32007681  0.25649987  0.71124003     0.92600
C378        C  0.29101738  0.32902874  0.76116801     0.92400
Mg379      Mg  0.21684029  0.21934509  0.72104954     1.58000
O380        O  0.20443969  0.18488729  0.73279783    -0.81200
O381        O  0.22735156  0.25275463  0.70656802    -0.75400
O382        O  0.31197808  0.27306644  0.72128351    -0.81300
O383        O  0.25323471  0.30593821  0.81949619    -0.83000
O384        O  0.17431161  0.23011192  0.79397616    -0.81300
C385        C  0.24498850  0.26407753  0.70661157     0.86900
O386        O  0.20413420  0.23485746  0.74972912    -0.88400
O387        O  0.24798341  0.21525243  0.73759508    -0.88500
O388        O  0.23999985  0.20119579  0.76992366    -0.75600
Mg389      Mg  0.27818539  0.28695968  0.73143369     1.58000
O390        O  0.30865770  0.23956404  0.70629318    -0.83000
H391        H  0.21800194  0.31287431  0.75741180    -0.06700
O392        O  0.22501811  0.24559487  0.79291224    -0.88200
H393        H  0.24032119  0.22748050  0.81595964    -0.06500
H394        H  0.18064073  0.24977188  0.73189964    -0.06700
C395        C  0.24061268  0.24202431  0.80565315     0.86800
C396        C  0.23256748  0.30263106  0.75711380     0.87400
C397        C  0.19140651  0.25045783  0.74607758     0.87500
H398        H  0.26604486  0.19133468  0.75161404    -0.06700
O399        O  0.29184967  0.23692006  0.75518684    -0.75700
Mg400      Mg  0.20766161  0.21743162  0.78047640     1.58000
H401        H  0.30152670  0.25420611  0.78209924    -0.06700
C402        C  0.23705331  0.30013681  0.83139026     0.92500
O403        O  0.17852654  0.26392458  0.80788206    -0.82900
C404        C  0.16721545  0.24646697  0.80514602     0.92500
O405        O  0.29532813  0.31742458  0.74430562    -0.82900
Mg406      Mg  0.27673932  0.22745308  0.72171957     1.58200
O407        O  0.22210879  0.28738982  0.82404281    -0.81300
O408        O  0.22940852  0.20489081  0.68921189    -0.83000
C409        C  0.97485999  0.25843301  0.86947908     0.86300
C410        C  0.97932273  0.27525511  0.88768527    -0.53900
C411        C  0.99630871  0.27019595  0.90173600     0.09200
C412        C  0.00773902  0.24806319  0.89591016     0.20200
C413        C  0.99733701  0.25577327  0.85773000    -0.54700
C414        C  0.01475583  0.25095498  0.87157291     0.09300
C415        C  0.97255076  0.23595835  0.88102038    -0.54200
C416        C  0.98931568  0.23044748  0.89485723     0.09900
H417        H  0.97009073  0.29061997  0.88874528     0.14400
H418        H  0.02119389  0.24340381  0.90738710     0.00100
H419        H  0.99953704  0.25659245  0.84005023     0.14700
H420        H  0.95923712  0.22449861  0.87745496     0.14500
O421        O  0.74201532  0.21935419  0.22366329    -0.88500
C422        C  0.79715930  0.25552399  0.23402255     0.87500
Mg423      Mg  0.71404919  0.23132705  0.20614477     1.58100
O424        O  0.76331646  0.25042830  0.28051601    -0.88300
O425        O  0.74863983  0.20628563  0.25683770    -0.75600
C426        C  0.69802880  0.33294689  0.24691917     0.92500
O427        O  0.76330719  0.25656576  0.19294042    -0.75400
O428        O  0.69354201  0.32188753  0.22960042    -0.82900
Mg429      Mg  0.77361538  0.22337084  0.20858449     1.58000
C430        C  0.74908075  0.30349250  0.31927541     0.92500
O431        O  0.78536609  0.18936037  0.22163844    -0.81200
H432        H  0.74801440  0.23134056  0.30259690    -0.06500
C433        C  0.75544794  0.30701548  0.24501674     0.87400
O434        O  0.69721086  0.24056428  0.23870264    -0.75700
O435        O  0.78483494  0.23961794  0.23750758    -0.88500
O436        O  0.76574184  0.29349921  0.31135807    -0.81300
C437        C  0.82134905  0.25204520  0.29250462     0.92600
C438        C  0.79470140  0.18073924  0.23851235     0.92400
Mg439      Mg  0.72005345  0.29065898  0.27622647     1.58000
O440        O  0.70866445  0.32461949  0.26312218    -0.81200
O441        O  0.72993735  0.25761801  0.29224625    -0.75400
O442        O  0.81362955  0.23549310  0.28206749    -0.81300
O443        O  0.76257461  0.20740581  0.17691659    -0.83000
O444        O  0.67834657  0.27705819  0.20271437    -0.81300
C445        C  0.74738635  0.24597329  0.29241776     0.86900
O446        O  0.70826970  0.27395171  0.24740835    -0.88400
O447        O  0.75149229  0.29419354  0.26047558    -0.88500
O448        O  0.74359454  0.30762389  0.22768386    -0.75600
Mg449      Mg  0.78074825  0.22245789  0.26839342     1.58000
O450        O  0.81016621  0.26959804  0.29541832    -0.83000
H451        H  0.72328639  0.19603085  0.23760134    -0.06700
O452        O  0.72945142  0.26340426  0.20370749    -0.88200
H453        H  0.74539430  0.28291819  0.18246847    -0.06500
H454        H  0.68592367  0.25747781  0.26516635    -0.06700
C455        C  0.74577388  0.26812284  0.19242388     0.86800
C456        C  0.73756337  0.20660002  0.23902997     0.87400
C457        C  0.69652580  0.25759400  0.25088804     0.87500
H458        H  0.76976649  0.31758639  0.24601882    -0.06700
O459        O  0.79668381  0.27276809  0.24586918    -0.75700
Mg460      Mg  0.71133581  0.29112025  0.21642040     1.58000
H461        H  0.80801238  0.25509883  0.21993844    -0.06700
C462        C  0.74532022  0.20939930  0.16511721     0.92500
O463        O  0.68286158  0.24322744  0.18963671    -0.82900
C464        C  0.67086096  0.26022760  0.19246636     0.92500
O465        O  0.79777831  0.19158112  0.25619447    -0.82900
Mg466      Mg  0.77951827  0.28201264  0.27807950     1.58200
O467        O  0.72806726  0.21912909  0.17234130    -0.81300
O468        O  0.73174860  0.30698092  0.30788142    -0.83000
C469        C  0.88349179  0.00865979  0.27377324     0.86300
C470        C  0.86657881  0.98968418  0.27420860    -0.53900
C471        C  0.85423457  0.98768585  0.25551277     0.09200
C472        C  0.85827974  0.00640289  0.23853419     0.20200
C473        C  0.89609634  0.00547864  0.25191927    -0.54700
C474        C  0.88312594  0.00470671  0.23319621     0.09300
C475        C  0.86865560  0.02895344  0.26991280    -0.54200
C476        C  0.85565535  0.02809422  0.25154318     0.09900
H477        H  0.86438249  0.97832336  0.28786664     0.14400
H478        H  0.84709491  0.00599789  0.22410706     0.00100
H479        H  0.91386154  0.00360708  0.25154293     0.14700
H480        H  0.86800553  0.04285860  0.28114286     0.14500
C481        C  0.01694232  0.24886904  0.35102718     0.86300
C482        C  0.01724582  0.22903886  0.36709587    -0.53900
C483        C  0.99913738  0.22723199  0.38020854     0.09200
C484        C  0.98268231  0.24653380  0.37722912     0.20200
C485        C  0.99479780  0.24729615  0.33888341    -0.54700
C486        C  0.97677820  0.24639649  0.35238797     0.09300
C487        C  0.01441439  0.26859691  0.36676994    -0.54200
C488        C  0.99655679  0.26776454  0.38045369     0.09900
H489        H  0.03073118  0.21732604  0.36842159     0.14400
H490        H  0.96828272  0.24533526  0.38834117     0.00100
H491        H  0.99346864  0.24742641  0.32101932     0.14700
H492        H  0.02609825  0.28213386  0.36737721     0.14500
O493        O  0.27330848  0.22403406  0.22221507    -0.88500
C494        C  0.27539034  0.23775647  0.28758118     0.87500
Mg495      Mg  0.27577825  0.24981446  0.19780978     1.58100
O496        O  0.22324154  0.22262519  0.26800175    -0.88300
O497        O  0.25150265  0.19705443  0.23285716    -0.75600
C498        C  0.20328678  0.32587502  0.23105989     0.92500
O499        O  0.29917062  0.26254629  0.24742057    -0.75400
O500        O  0.22111135  0.32451717  0.22006858    -0.82900
Mg501      Mg  0.29779979  0.22440714  0.24765110     1.58000
C502        C  0.16822285  0.25843839  0.28371035     0.92500
O503        O  0.29933996  0.18621858  0.24789947    -0.81200
H504        H  0.20404152  0.20102692  0.25217101    -0.06500
C505        C  0.23424527  0.28909134  0.27304720     0.87400
O506        O  0.23811786  0.24957721  0.19324271    -0.75700
O507        O  0.27233007  0.22520603  0.27182312    -0.88500
O508        O  0.18389423  0.24809128  0.29333865    -0.81300
C509        C  0.23388263  0.20554215  0.32446759     0.92600
C510        C  0.29224806  0.17002063  0.25938553     0.92400
Mg511      Mg  0.19892901  0.27101272  0.24237972     1.58000
O512        O  0.19511498  0.30894887  0.24058942    -0.81200
O513        O  0.19870948  0.23299615  0.24334169    -0.75400
O514        O  0.24577675  0.19719474  0.30929927    -0.81300
O515        O  0.32590417  0.22466652  0.22323727    -0.83000
O516        O  0.25069419  0.29889311  0.18339008    -0.81300
C517        C  0.20838418  0.21814413  0.25472525     0.86900
O518        O  0.22484241  0.27102257  0.21902966    -0.88400
O519        O  0.22325585  0.27260018  0.26814545    -0.88500
O520        O  0.24535778  0.29965505  0.25876744    -0.75600
Mg521      Mg  0.24911447  0.19867660  0.27092082     1.58000
O522        O  0.22177154  0.22215077  0.32022935    -0.83000
H523        H  0.25999011  0.20264387  0.20093966    -0.06700
O524        O  0.27388174  0.27358566  0.22383787    -0.88200
H525        H  0.29375450  0.29476445  0.23944699    -0.06500
H526        H  0.20560603  0.25671404  0.19638961    -0.06700
C527        C  0.28915504  0.27773578  0.23675479     0.86800
C528        C  0.26174694  0.20772917  0.21791112     0.87400
C529        C  0.22211488  0.25927692  0.20259815     0.87500
H530        H  0.23506096  0.29415635  0.29009140    -0.06700
O531        O  0.25962812  0.24811729  0.29661583    -0.75700
Mg532      Mg  0.24796653  0.29770016  0.22116275     1.58000
H533        H  0.29200952  0.24055617  0.29334167    -0.06700
C534        C  0.32937277  0.23771846  0.20712305     0.92500
O535        O  0.27728213  0.27678136  0.17156445    -0.82900
C536        C  0.26356898  0.29236934  0.16818410     0.92500
O537        O  0.27625432  0.17248412  0.27268185    -0.82900
Mg538      Mg  0.22194935  0.24761597  0.29303121     1.58200
O539        O  0.31400479  0.24932304  0.19846395    -0.81300
O540        O  0.17112890  0.27006856  0.26647553    -0.83000
C541        C  0.27324924  0.39432833  0.99416272     0.86300
C542        C  0.26644575  0.37898010  0.97585520    -0.53900
C543        C  0.24726051  0.36818202  0.97930998     0.09200
C544        C  0.23616022  0.37362340  0.00180918     0.20200
C545        C  0.25290973  0.40973878  0.99760113    -0.54700
C546        C  0.23328905  0.39891137  0.00149816     0.09300
C547        C  0.27319315  0.37992738  0.01504140    -0.54200
C548        C  0.25379928  0.36956200  0.01990447     0.09900
H549        H  0.27570657  0.37746574  0.96061315     0.14400
H550        H  0.22058478  0.36508083  0.00498104     0.00100
H551        H  0.25379837  0.42750159  0.99786331     0.14700
H552        H  0.28757898  0.37861850  0.02564876     0.14500
C553        C  0.39967688  0.00307819  0.21694465     0.86300
C554        C  0.38564830  0.02411970  0.21937335    -0.53900
C555        C  0.37162275  0.02420626  0.23683463     0.09200
C556        C  0.37262617  0.00259725  0.25059056     0.20200
C557        C  0.41100888  0.99968497  0.23949904    -0.54700
C558        C  0.39716865  0.99989309  0.25746517     0.09300
C559        C  0.38204067  0.98481922  0.21591958    -0.54200
C560        C  0.36854609  0.98378382  0.23378787     0.09900
H561        H  0.38622313  0.03783763  0.20779551     0.14400
H562        H  0.36070207  0.00294064  0.26431088     0.00100
H563        H  0.42863422  0.99702878  0.24093541     0.14700
H564        H  0.38041349  0.97312948  0.20252951     0.14500
O565        O  0.02149683  0.02769158  0.48094075    -0.88500
C566        C  0.00993855  0.03269926  0.54639725     0.87500
Mg567      Mg  0.99607688  0.03062713  0.45645213     1.58100
O568        O  0.01958306  0.97922218  0.52741194    -0.88300
O569        O  0.04698019  0.00391230  0.49104131    -0.75600
C570        C  0.91361425  0.96703824  0.49325154     0.92500
O571        O  0.98519889  0.05611812  0.50563987    -0.75400
O572        O  0.91655539  0.98371862  0.48059483    -0.82900
Mg573      Mg  0.02307827  0.05323964  0.50550547     1.58000
C574        C  0.98130107  0.92714721  0.54482873     0.92500
O575        O  0.06161908  0.05311292  0.50576530    -0.81200
H576        H  0.03840361  0.95758083  0.51121636    -0.06500
C577        C  0.95450045  0.99633719  0.53318624     0.87400
O578        O  0.99325302  0.99283692  0.45381661    -0.75700
O579        O  0.02176941  0.02833097  0.53039136    -0.88500
O580        O  0.99389185  0.94200922  0.55276260    -0.81300
C581        C  0.03884723  0.98991697  0.58324009     0.92600
C582        C  0.07774816  0.04353205  0.51559492     0.92400
Mg583      Mg  0.96783295  0.95831483  0.50455701     1.58000
O584        O  0.92952620  0.95828163  0.50404006    -0.81200
O585        O  0.00574952  0.95479280  0.50442694    -0.75400
O586        O  0.04811828  0.00052946  0.56749842    -0.81300
O587        O  0.02263969  0.08137994  0.48047343    -0.83000
O588        O  0.94329415  0.01091300  0.44181566    -0.81300
C589        C  0.02195937  0.96359441  0.51448354     0.86900
O590        O  0.96959889  0.98271292  0.47918254    -0.88400
O591        O  0.96995155  0.98380412  0.52867010    -0.88500
O592        O  0.94414783  0.00709969  0.51832718    -0.75600
Mg593      Mg  0.04599673  0.00253370  0.52894372     1.58000
O594        O  0.02157825  0.97836941  0.58016606    -0.83000
H595        H  0.04139596  0.01301431  0.45922752    -0.06700
O596        O  0.97171956  0.03202888  0.48203714    -0.88200
H597        H  0.95266891  0.05323714  0.49847198    -0.06500
H598        H  0.98270805  0.96125348  0.45795905    -0.06700
C599        C  0.96916162  0.04743133  0.49521172     0.86800
C600        C  0.03686261  0.01508188  0.47633817     0.87400
C601        C  0.98155539  0.97822833  0.46333278     0.87500
H602        H  0.94998775  0.99855696  0.55024202    -0.06700
O603        O  0.99829814  0.01804471  0.55595563    -0.75700
Mg604      Mg  0.94528573  0.00844544  0.48032178     1.58000
H605        H  0.00882682  0.04962786  0.55186910    -0.06700
C606        C  0.00971519  0.08431519  0.46413539     0.92500
O607        O  0.97016088  0.03286165  0.42956323    -0.82900
C608        C  0.95263477  0.02180184  0.42630288     0.92500
O609        O  0.07478554  0.02668940  0.52799209    -0.82900
Mg610      Mg  0.99563887  0.98025843  0.55308698     1.58200
O611        O  0.99908568  0.06832951  0.45562037    -0.81300
O612        O  0.96661397  0.93172009  0.53055727    -0.83000
O613        O  0.01542824  0.96195448  0.99956531    -0.88500
C614        C  0.00271382  0.00056616  0.05289255     0.87500
Mg615      Mg  0.03314875  0.97456525  0.97155700     1.58100
O616        O  0.95696083  0.99122813  0.01833889    -0.88300
O617        O  0.98322234  0.94752579  0.00753618    -0.75600
C618        C  0.98827496  0.07296431  0.95126914     0.92500
O619        O  0.04523446  0.00065844  0.01965582    -0.75400
O620        O  0.00515468  0.06133645  0.94694406    -0.82900
Mg621      Mg  0.03056795  0.96738448  0.03105053     1.58000
C622        C  0.91523029  0.04259454  0.00053839     0.92500
O623        O  0.01874023  0.93374900  0.04502165    -0.81200
H624        H  0.93629081  0.97044116  0.00321736    -0.06500
C625        C  0.98923480  0.04913002  0.00940109     0.87400
O626        O  0.00036584  0.98126504  0.95337200    -0.75700
O627        O  0.00081586  0.98382541  0.04138593    -0.88500
O628        O  0.92287829  0.03261737  0.01747559    -0.81300
C629        C  0.94292215  0.99591005  0.07626660     0.92600
C630        C  0.00262600  0.92577666  0.05593073     0.92400
Mg631      Mg  0.95959595  0.03060197  0.97376644     1.58000
O632        O  0.97203188  0.06505008  0.96203059    -0.81200
O633        O  0.94492426  0.99705824  0.98460503    -0.75400
O634        O  0.95667749  0.98070525  0.07125764    -0.81300
O635        O  0.06259417  0.95063269  0.01998587    -0.83000
O636        O  0.03248214  0.01819942  0.93399539    -0.81300
C637        C  0.94555694  0.98566400  0.00232053     0.86900
O638        O  0.98911580  0.01416178  0.96364910    -0.88400
O639        O  0.97441964  0.03564004  0.00546033    -0.88500
O640        O  0.00674337  0.04998851  0.99796689    -0.75600
Mg641      Mg  0.97074840  0.96534608  0.03866400     1.58000
O642        O  0.93758752  0.01057019  0.06222890    -0.83000
H643        H  0.00241734  0.93703808  0.98229626    -0.06700
O644        O  0.03265636  0.00653240  0.98620852    -0.88200
H645        H  0.05375143  0.02717300  0.00088504    -0.06500
H646        H  0.97279343  0.99614801  0.94139075    -0.06700
C647        C  0.04438935  0.01203726  0.00197321     0.86800
C648        C  0.00067462  0.94828795  0.99598530     0.87400
C649        C  0.98688717  0.99737969  0.95223138     0.87500
H650        H  0.98750349  0.06009094  0.02330585    -0.06700
O651        O  0.98894694  0.01643227  0.05171816    -0.75700
Mg652      Mg  0.01893143  0.03261080  0.96654616     1.58000
H653        H  0.01662766  0.00192148  0.06393347    -0.06700
C654        C  0.07469795  0.95491284  0.00337353     0.92500
O655        O  0.05106654  0.98731650  0.94100197    -0.82900
C656        C  0.04568414  0.00299453  0.92794421     0.92500
O657        O  0.98474293  0.93649137  0.05854783    -0.82900
Mg658      Mg  0.95640536  0.02325469  0.03295085     1.58200
O659        O  0.06713417  0.96600684  0.98706721    -0.81300
O660        O  0.92712274  0.04645136  0.98371483    -0.83000
O661        O  0.47731145  0.04206585  0.48946029    -0.88500
C662        C  0.48092255  0.00729743  0.54697926     0.87500
Mg663      Mg  0.46165734  0.02933751  0.46039314     1.58100
O664        O  0.53005298  0.00883051  0.51706447    -0.88300
O665        O  0.51004585  0.05392296  0.49925858    -0.75600
C666        C  0.49627997  0.92442175  0.45392638     0.92500
O667        O  0.44242010  0.00823806  0.50983156    -0.75400
O668        O  0.47980344  0.93635501  0.44840983    -0.82900
Mg669      Mg  0.45908825  0.04081533  0.51981277     1.58000
C670        C  0.56836235  0.95329942  0.50720845     0.92500
O671        O  0.47280389  0.07507624  0.53184887    -0.81200
H672        H  0.55352498  0.02609920  0.50166915    -0.06500
C673        C  0.49250350  0.95385696  0.50976953     0.87400
O674        O  0.49469457  0.01688803  0.44706581    -0.75700
O675        O  0.48588393  0.02289072  0.53461724    -0.88500
O676        O  0.56023629  0.96474976  0.52288828    -0.81300
C677        C  0.53730636  0.00850209  0.57615171     0.92600
C678        C  0.48884482  0.08244307  0.54345056     0.92400
Mg679      Mg  0.52682318  0.96596619  0.47557065     1.58000
O680        O  0.51245897  0.93216234  0.46497571    -0.81200
O681        O  0.54345160  0.99889294  0.48497777    -0.75400
O682        O  0.52715538  0.02503199  0.56775444    -0.81300
O683        O  0.42925192  0.05783024  0.50462285    -0.83000
O684        O  0.45702129  0.98110502  0.42770711    -0.81300
C685        C  0.54289399  0.01179222  0.50150059     0.86900
O686        O  0.49989152  0.98360523  0.46077608    -0.88400
O687        O  0.50922320  0.96497589  0.50601621    -0.88500
O688        O  0.47589085  0.95406228  0.49689609    -0.75600
Mg689      Mg  0.51768798  0.03810772  0.53298421     1.58000
O690        O  0.54155915  0.99108494  0.56528385    -0.83000
H691        H  0.49424225  0.06386488  0.47143219    -0.06700
O692        O  0.45579604  0.99861402  0.47766501    -0.88200
H693        H  0.43179664  0.98165076  0.49254840    -0.06500
H694        H  0.52044433  0.99719201  0.43890354    -0.06700
C695        C  0.44272578  0.99573711  0.49303525     0.86800
C696        C  0.49363409  0.05386935  0.48616233     0.87400
C697        C  0.50544496  0.99887323  0.44832345     0.87500
H698        H  0.49171942  0.94426500  0.52476911    -0.06700
O699        O  0.49251167  0.98975732  0.54830815    -0.75700
Mg700      Mg  0.46771730  0.96890130  0.46276179     1.58000
H701        H  0.46592470  0.00836085  0.55649570    -0.06700
C702        C  0.41905597  0.05479035  0.48647794     0.92500
O703        O  0.44693617  0.01640808  0.42830516    -0.82900
C704        C  0.44883277  0.99812754  0.41809385     0.92500
O705        O  0.50530597  0.07024783  0.54843244    -0.82900
Mg706      Mg  0.52578411  0.97799470  0.53425453     1.58200
O707        O  0.42780726  0.04400215  0.47068443    -0.81300
O708        O  0.55710629  0.94860224  0.49007416    -0.83000
C709        C  0.24904196  0.14532393  0.52261466     0.86300
C710        C  0.26942397  0.13136482  0.51657943    -0.53900
C711        C  0.26707178  0.11834272  0.49831782     0.09200
C712        C  0.24436232  0.12132341  0.48682505     0.20200
C713        C  0.24539003  0.15885560  0.50112949    -0.54700
C714        C  0.24280472  0.14653781  0.48231439     0.09300
C715        C  0.22993553  0.12898119  0.52343333    -0.54200
C716        C  0.22671451  0.11688487  0.50484098     0.09900
H717        H  0.28486757  0.13219158  0.52562852     0.14400
H718        H  0.24255276  0.11100107  0.47186747     0.00100
H719        H  0.24617046  0.17667679  0.50042954     0.14700
H720        H  0.21874713  0.12810724  0.53736488     0.14500
O721        O  0.47241483  0.97516939  0.96137235    -0.88500
C722        C  0.48876551  0.97143858  0.02626656     0.87500
Mg723      Mg  0.49721661  0.97277863  0.93614169     1.58100
O724        O  0.47789642  0.02494015  0.00631118    -0.88300
O725        O  0.44785148  0.99930289  0.97230081    -0.75600
C726        C  0.58210374  0.03427230  0.97133412     0.92500
O727        O  0.51016187  0.94595644  0.98418507    -0.75400
O728        O  0.57858972  0.01747112  0.95920616    -0.82900
Mg729      Mg  0.47256959  0.94975310  0.98651465     1.58000
C730        C  0.51710031  0.07778149  0.02239503     0.92500
O731        O  0.43429882  0.94887622  0.99139051    -0.81200
H732        H  0.45814559  0.04633562  0.99054350    -0.06500
C733        C  0.54209652  0.00758003  0.01163387     0.87400
O734        O  0.50019768  0.01054661  0.93378313    -0.75700
O735        O  0.47606355  0.97526662  0.01066565    -0.88500
O736        O  0.50527867  0.06261010  0.03095223    -0.81300
C737        C  0.46169376  0.01506074  0.06315422     0.92600
C738        C  0.41922746  0.95863582  0.00240410     0.92400
Mg739      Mg  0.52835370  0.04582334  0.98195488     1.58000
O740        O  0.56643306  0.04441677  0.98099408    -0.81200
O741        O  0.49046109  0.04956650  0.98266901    -0.75400
O742        O  0.45224784  0.00347816  0.04831712    -0.81300
O743        O  0.47037328  0.92239616  0.96079406    -0.83000
O744        O  0.55008363  0.99188769  0.92172238    -0.81300
C745        C  0.47476446  0.04052711  0.99330022     0.86900
O746        O  0.52539798  0.02062398  0.95786652    -0.88400
O747        O  0.52718183  0.02078544  0.00696598    -0.88500
O748        O  0.55115169  0.99559443  0.99709980    -0.75600
Mg749      Mg  0.45172135  0.00121870  0.00997444     1.58000
O750        O  0.47792676  0.02753928  0.05880104    -0.83000
H751        H  0.45107874  0.98946839  0.94055360    -0.06700
O752        O  0.52220947  0.97127409  0.96125464    -0.88200
H753        H  0.54215662  0.94881597  0.97511607    -0.06500
H754        H  0.51115948  0.04200129  0.93702933    -0.06700
C755        C  0.52555427  0.95504590  0.97329824     0.86800
C756        C  0.45679609  0.98774309  0.95733863     0.87400
C757        C  0.51257349  0.02506678  0.94251622     0.87500
H758        H  0.54699934  0.00561101  0.02865993    -0.06700
O759        O  0.50019320  0.98662410  0.03520874    -0.75700
Mg760      Mg  0.54901529  0.99412731  0.95940568     1.58000
H761        H  0.49062524  0.95465582  0.03206953    -0.06700
C762        C  0.48243256  0.91926987  0.94390460     0.92500
O763        O  0.52244705  0.97161965  0.90835289    -0.82900
C764        C  0.54034617  0.98230980  0.90575381     0.92500
O765        O  0.42319189  0.97684712  0.01210866    -0.82900
Mg766      Mg  0.50266568  0.02455174  0.03152011     1.58200
O767        O  0.49388766  0.93469589  0.93519424    -0.81300
O768        O  0.53022987  0.07398744  0.00656417    -0.83000
C769        C  0.49879809  0.22520624  0.10028170     0.86300
C770        C  0.47813558  0.22446002  0.11486154    -0.53900
C771        C  0.47612202  0.24130522  0.12961057     0.09200
C772        C  0.49557509  0.25779608  0.12849829     0.20200
C773        C  0.49695281  0.24872583  0.08964603    -0.54700
C774        C  0.49518516  0.26610846  0.10433542     0.09300
C775        C  0.51822265  0.22698002  0.11594621    -0.54200
C776        C  0.51715200  0.24376863  0.13050119     0.09900
H777        H  0.46554867  0.21183787  0.11304427     0.14400
H778        H  0.49364201  0.27086471  0.14090696     0.00100
H779        H  0.49619399  0.25158625  0.07217491     0.14700
H780        H  0.53268142  0.21641889  0.11465384     0.14500
O781        O  0.46797875  0.51051740  0.98386130    -0.88500
C782        C  0.50167983  0.45279626  0.99200874     0.87500
Mg783      Mg  0.48150336  0.53870360  0.96743251     1.58100
O784        O  0.49708619  0.48443612  0.04014707    -0.88300
O785        O  0.45407397  0.50184847  0.01611242    -0.75600
C786        C  0.58181873  0.54863465  0.00996811     0.92500
O787        O  0.50391068  0.48872453  0.95225497    -0.75400
O788        O  0.57110246  0.55330378  0.99248904    -0.82900
Mg789      Mg  0.47040869  0.47951969  0.96716831     1.58000
C790        C  0.55016621  0.49584922  0.08002205     0.92500
O791        O  0.43596784  0.46877352  0.97918461    -0.81200
H792        H  0.47832302  0.50014574  0.06212640    -0.06500
C793        C  0.55405194  0.49149940  0.00577913     0.87400
O794        O  0.49074525  0.55420994  0.00067756    -0.75700
O795        O  0.48640274  0.46581286  0.99563746    -0.88500
O796        O  0.53965841  0.47958394  0.07176396    -0.81300
C797        C  0.49656088  0.42536484  0.04954710     0.92600
C798        C  0.42784656  0.45703017  0.99467238     0.92400
Mg799      Mg  0.53887643  0.52674034  0.03777989     1.58000
O800        O  0.57327714  0.53782016  0.02590012    -0.81200
O801        O  0.50540651  0.51738990  0.05273713    -0.75400
O802        O  0.48081683  0.43392025  0.03841673    -0.81300
O803        O  0.45485176  0.49318126  0.93587480    -0.83000
O804        O  0.52880398  0.57216403  0.96604486    -0.81300
C805        C  0.49312081  0.50037192  0.05224786     0.86900
O806        O  0.52310086  0.54046461  0.00930103    -0.88400
O807        O  0.54141123  0.49546497  0.02122829    -0.88500
O808        O  0.55521081  0.50402574  0.98890923    -0.75600
Mg809      Mg  0.46908574  0.46827273  0.02621063     1.58000
O810        O  0.51411309  0.43603363  0.05396854    -0.83000
H811        H  0.44538611  0.52924702  0.99869949    -0.06700
O812        O  0.51233017  0.52151468  0.96517451    -0.88200
H813        H  0.53111362  0.50590515  0.94316047    -0.06500
H814        H  0.50826926  0.56342489  0.02766369    -0.06700
C815        C  0.51628972  0.50566222  0.95296535     0.86800
C816        C  0.45526979  0.51442426  0.99927601     0.87400
C817        C  0.50767667  0.55328866  0.01303280     0.87500
H818        H  0.56390295  0.47665375  0.00635152    -0.06700
O819        O  0.51844646  0.45159914  0.00456262    -0.75700
Mg820      Mg  0.54040865  0.53763657  0.97863667     1.58000
H821        H  0.50106708  0.44265612  0.97738772    -0.06700
C822        C  0.46002769  0.51028564  0.92473458     0.92500
O823        O  0.49513612  0.56960249  0.95159262    -0.82900
C824        C  0.51272395  0.58045752  0.95514348     0.92500
O825        O  0.43894170  0.45197195  0.01179719    -0.82900
Mg826      Mg  0.52797453  0.46712345  0.03775772     1.58200
O827        O  0.47091489  0.52626676  0.93300454    -0.81300
O828        O  0.55427956  0.51328483  0.06896490    -0.83000
O829        O  0.01934761  0.51892689  0.47139006    -0.88500
C830        C  0.02738026  0.45369249  0.48706433     0.87500
Mg831      Mg  0.02108305  0.54481312  0.49545516     1.58100
O832        O  0.97332685  0.47044712  0.47548920    -0.88300
O833        O  0.99710600  0.50608032  0.44596819    -0.75600
C834        C  0.95933326  0.50850424  0.57867946     0.92500
O835        O  0.04972022  0.49785619  0.50906544    -0.75400
O836        O  0.97474708  0.52210794  0.57444183    -0.82900
Mg837      Mg  0.04590262  0.49567691  0.47132150     1.58000
C838        C  0.92192787  0.45119077  0.51477637     0.92500
O839        O  0.04576297  0.49302762  0.43325618    -0.81200
H840        H  0.95104014  0.48445660  0.45547330    -0.06500
C841        C  0.99058151  0.46743563  0.54042896     0.87400
O842        O  0.98330327  0.54557391  0.49784163    -0.75700
O843        O  0.02248239  0.46936888  0.47476940    -0.88500
O844        O  0.93716004  0.44398179  0.50235906    -0.81300
C845        C  0.98485486  0.41435538  0.45834566     0.92600
C846        C  0.03836534  0.48018468  0.41832703     0.92400
Mg847      Mg  0.95115418  0.49384252  0.52563701     1.58000
O848        O  0.95178339  0.49563208  0.56385461    -0.81200
O849        O  0.94731209  0.49243050  0.48771599    -0.75400
O850        O  0.99676344  0.42959851  0.44994825    -0.81300
O851        O  0.07141506  0.52292378  0.46843212    -0.83000
O852        O  0.00036451  0.55973762  0.54719930    -0.81300
C853        C  0.95698878  0.48230672  0.47212778     0.86900
O854        O  0.97444132  0.52016547  0.52218129    -0.88400
O855        O  0.97764295  0.47061432  0.52490508    -0.88500
O856        O  0.00054186  0.48334593  0.54983559    -0.75600
Mg857      Mg  0.99743526  0.46809830  0.44984126     1.58000
O858        O  0.97281838  0.41803634  0.47501273    -0.83000
H859        H  0.00406319  0.53867228  0.44967680    -0.06700
O860        O  0.02374822  0.52008024  0.52090895    -0.88200
H861        H  0.04633495  0.50680699  0.54105988    -0.06500
H862        H  0.95199788  0.53992213  0.50801359    -0.06700
C863        C  0.04022263  0.50846707  0.52441047     0.86800
C864        C  0.00694802  0.52201630  0.45542672     0.87400
C865        C  0.96917949  0.53548355  0.50959537     0.87500
H866        H  0.99383063  0.45074819  0.54582047    -0.06700
O867        O  0.01288445  0.44339459  0.49820355    -0.75700
Mg868      Mg  0.99982519  0.52143634  0.54671804     1.58000
H869        H  0.04446535  0.44894616  0.48875225    -0.06700
C870        C  0.07444785  0.53968807  0.48066103     0.92500
O871        O  0.02134075  0.57308950  0.52009349    -0.82900
C872        C  0.01019261  0.57575764  0.53762635     0.92500
O873        O  0.02267410  0.46678181  0.42219375    -0.82900
Mg874      Mg  0.97499055  0.44531897  0.50032281     1.58200
O875        O  0.05904133  0.54743763  0.49263187    -0.81300
O876        O  0.92544119  0.46674559  0.52836245    -0.83000
O877        O  0.97988964  0.47043530  0.98407034    -0.88500
C878        C  0.04425772  0.48795009  0.98241910     0.87500
Mg879      Mg  0.95435045  0.49435829  0.97838535     1.58100
O880        O  0.02408469  0.47652298  0.03518455    -0.88300
O881        O  0.99119413  0.44627468  0.00884327    -0.75600
C882        C  0.98174893  0.57875333  0.04257167     0.92500
O883        O  0.00355099  0.50745849  0.95437085    -0.75400
O884        O  0.97086407  0.57400386  0.02530454    -0.82900
Mg885      Mg  0.00559994  0.46979095  0.96018406     1.58000
C886        C  0.03617811  0.51634851  0.08770736     0.92500
O887        O  0.00796093  0.43179791  0.96268608    -0.81200
H888        H  0.00850823  0.45608771  0.05584649    -0.06500
C889        C  0.02691412  0.54138825  0.01772052     0.87400
O890        O  0.94914064  0.49768143  0.01574445    -0.75700
O891        O  0.02901556  0.47487373  0.98613077    -0.88500
O892        O  0.04634413  0.50556812  0.07286065    -0.81300
C893        C  0.08145801  0.46220049  0.02703269     0.92600
C894        C  0.02029264  0.41729307  0.97176650     0.92400
Mg895      Mg  0.99622118  0.52580165  0.05380887     1.58000
O896        O  0.99336037  0.56417395  0.05258959    -0.81200
O897        O  0.99848099  0.48798989  0.05796048    -0.75400
O898        O  0.06701562  0.45226776  0.01537340    -0.81300
O899        O  0.98153778  0.46534123  0.93195598    -0.83000
O900        O  0.93793903  0.54596675  0.99644642    -0.81300
C901        C  0.01056473  0.47280162  0.04999598     0.86900
O902        O  0.97353700  0.52182654  0.02712728    -0.88400
O903        O  0.02248739  0.52594054  0.03039317    -0.88500
O904        O  0.01247482  0.54997386  0.00510540    -0.75600
Mg905      Mg  0.02895245  0.45060769  0.01186191     1.58000
O906        O  0.07673425  0.47866774  0.03907026    -0.83000
H907        H  0.95933164  0.44920867  0.99882989    -0.06700
O908        O  0.97932476  0.51963060  0.97812184    -0.88200
H909        H  0.99391413  0.53954902  0.95621672    -0.06500
H910        H  0.95120740  0.50844871  0.04730079    -0.06700
C911        C  0.99208756  0.52297025  0.96259609     0.86800
C912        C  0.97606717  0.45506455  0.99709196     0.87400
C913        C  0.95762659  0.50957533  0.03076474     0.87500
H914        H  0.04373404  0.54723805  0.01680318    -0.06700
O915        O  0.05264025  0.49983783  0.99753626    -0.75700
Mg916      Mg  0.97510528  0.54592880  0.00123523     1.58000
H917        H  0.05024897  0.48972751  0.96574259    -0.06700
C918        C  0.96535919  0.47754796  0.92642430     0.92500
O919        O  0.92634802  0.51919482  0.97408576    -0.82900
C920        C  0.92292598  0.53674777  0.98509312     0.92500
O921        O  0.03297718  0.42221201  0.98774719    -0.82900
Mg922      Mg  0.04813689  0.50245810  0.03514502     1.58200
O923        O  0.95606984  0.49033900  0.94028842    -0.81300
O924        O  0.01935238  0.52820055  0.08331319    -0.83000
C925        C  0.14569675  0.52229332  0.25361199     0.86300
C926        C  0.13150675  0.51877666  0.27433764    -0.53900
C927        C  0.11704065  0.50157641  0.27336369     0.09200
C928        C  0.11781442  0.48917103  0.25122503     0.20200
C929        C  0.15650128  0.49966372  0.24916759    -0.54700
C930        C  0.14215686  0.48197401  0.24838772     0.09300
C931        C  0.12824110  0.52470687  0.23531863    -0.54200
C932        C  0.11425642  0.50718958  0.23337865     0.09900
H933        H  0.13191362  0.52964220  0.28846837     0.14400
H934        H  0.10557605  0.47565128  0.25067950     0.06500
H935        H  0.17410319  0.49796882  0.24664952     0.14700
H936        H  0.12736487  0.53872536  0.22409311     0.14500
O937        O  0.46112957  0.48944534  0.52518224    -0.88500
C938        C  0.49250634  0.54804688  0.51638152     0.87500
Mg939      Mg  0.47634889  0.46159477  0.54120158     1.58100
O940        O  0.48597653  0.51736699  0.46767381    -0.88300
O941        O  0.44535029  0.49813120  0.49362756    -0.75600
C942        C  0.57388530  0.45432570  0.49273864     0.92500
O943        O  0.49789726  0.51174063  0.55546510    -0.75400
O944        O  0.56462612  0.44844162  0.51065405    -0.82900
Mg945      Mg  0.46320531  0.52025102  0.54230251     1.58000
C946        C  0.53762514  0.50727608  0.42573225     0.92500
O947        O  0.42788984  0.53028175  0.53198200    -0.81200
H948        H  0.46612181  0.50113629  0.44700250    -0.06500
C949        C  0.54488237  0.51039902  0.49927784     0.87400
O950        O  0.48379428  0.44585086  0.50772156    -0.75700
O951        O  0.47719200  0.53493615  0.51329500    -0.88500
O952        O  0.52716615  0.52361439  0.43396487    -0.81300
C953        C  0.48402308  0.57698811  0.45990599     0.92600
C954        C  0.41821619  0.54116107  0.51667496     0.92400
Mg955      Mg  0.52829601  0.47532480  0.46815502     1.58000
O956        O  0.56379833  0.46534965  0.47781298    -0.81200
O957        O  0.49376440  0.48414229  0.45529488    -0.75400
O958        O  0.46883499  0.56777130  0.47127152    -0.81300
O959        O  0.44932337  0.50543709  0.57390098    -0.83000
O960        O  0.52457626  0.42855006  0.54104786    -0.81300
C961        C  0.48147497  0.50118149  0.45604467     0.86900
O962        O  0.51501705  0.46061226  0.49737753    -0.88400
O963        O  0.53118345  0.50649989  0.48464950    -0.88500
O964        O  0.54766508  0.49750914  0.51570465    -0.75600
Mg965      Mg  0.45845906  0.53246591  0.48329842     1.58000
O966        O  0.50143448  0.56651031  0.45451780    -0.83000
H967        H  0.43859756  0.47010077  0.51087570    -0.06700
O968        O  0.50690585  0.47929236  0.54199851    -0.88200
H969        H  0.52633335  0.49568630  0.56295072    -0.06500
H970        H  0.50000665  0.43700179  0.47992852    -0.06700
C971        C  0.51096907  0.49533310  0.55397645     0.86800
C972        C  0.44787625  0.48532109  0.51018064     0.87400
C973        C  0.49990041  0.44723195  0.49449433     0.87500
H974        H  0.55439104  0.52545849  0.49834137    -0.06700
O975        O  0.50849811  0.54966214  0.50301833    -0.75700
Mg976      Mg  0.53447420  0.46351280  0.52690014     1.58000
H977        H  0.49262717  0.55791898  0.53119294    -0.06700
C978        C  0.45607799  0.48873240  0.58487171     0.92500
O979        O  0.49167263  0.43146448  0.55691973    -0.82900
C980        C  0.50925397  0.42067727  0.55323561     0.92500
O981        O  0.42804091  0.54683021  0.49903224    -0.82900
Mg982      Mg  0.51660892  0.53503890  0.46907639     1.58200
O983        O  0.46774023  0.47375092  0.57597587    -0.81300
O984        O  0.54127376  0.48960058  0.43658429    -0.83000
C985        C  0.98988869  0.76996383  0.59960615     0.86300
C986        C  0.00952648  0.76968796  0.61569491    -0.53900
C987        C  0.01053721  0.75187021  0.62963014     0.09200
C988        C  0.99129486  0.73546414  0.62609929     0.20200
C989        C  0.99106544  0.74763933  0.58761886    -0.54700
C990        C  0.99216501  0.72946276  0.60129862     0.09300
C991        C  0.97011929  0.76792658  0.61527797    -0.54200
C992        C  0.97028939  0.74963317  0.62846022     0.09900
H993        H  0.02160125  0.78287701  0.61641389     0.14400
H994        H  0.99168579  0.72104835  0.63745641     0.00100
H995        H  0.99147987  0.74637761  0.56977188     0.14700
H996        H  0.95690929  0.77995281  0.61628103     0.14500
O997        O  0.20100422  0.76243612  0.75166856    -0.88500
C998        C  0.23344174  0.75423867  0.69352809     0.87500
Mg999      Mg  0.21541749  0.77877169  0.77942839     1.58100
O1000       O  0.23033520  0.70562936  0.72535467    -0.88300
O1001       O  0.18768824  0.72959652  0.74372602    -0.75600
C1002       C  0.31653836  0.73658900  0.78729310     0.92500
O1003       O  0.23703800  0.79376304  0.72918680    -0.75400
O1004       O  0.30494987  0.75279444  0.79383023    -0.82900
Mg1005     Mg  0.20317528  0.77917064  0.72043496     1.58000
C1006       C  0.28615747  0.66698036  0.73491286     0.92500
O1007       O  0.16831177  0.76746620  0.71005832    -0.81200
H1008       H  0.21269588  0.68259670  0.74114296    -0.06500
C1009       C  0.28704885  0.74113728  0.73114281     0.87400
O1010       O  0.22499127  0.74496588  0.79457711    -0.75700
O1011       O  0.21859526  0.75050351  0.70694256    -0.88500
O1012       O  0.27377053  0.67405296  0.71930715    -0.81300
C1013       C  0.22828797  0.69694824  0.66656592     0.92600
C1014       C  0.15969495  0.75146420  0.69944112     0.92400
Mg1015     Mg  0.27358945  0.70832142  0.76602173     1.58000
O1016       O  0.30822985  0.72135021  0.77544681    -0.81200
O1017       O  0.24026004  0.69214934  0.75757276    -0.75400
O1018       O  0.21267734  0.70818031  0.67509903    -0.81300
O1019       O  0.18855289  0.81092266  0.73362137    -0.83000
O1020       O  0.26233766  0.77748978  0.81259721    -0.81300
C1021       C  0.22722595  0.69290534  0.74110125     0.86900
O1022       O  0.25689397  0.73604412  0.78014136    -0.88400
O1023       O  0.27462996  0.72538451  0.73509090    -0.88500
O1024       O  0.28856381  0.75762865  0.74403061    -0.75600
Mg1025     Mg  0.20159610  0.71967146  0.70991668     1.58000
O1026       O  0.24580936  0.69215734  0.67719792    -0.83000
H1027       H  0.17928228  0.74691656  0.77101232    -0.06700
O1028       O  0.24588187  0.78071047  0.76189787    -0.88200
H1029       H  0.26465367  0.80264553  0.74588233    -0.06500
H1030       H  0.24205387  0.71725336  0.80281787    -0.06700
C1031       C  0.24970287  0.79292965  0.74592293     0.86800
C1032       C  0.18878431  0.74660053  0.75597340     0.87400
C1033       C  0.24157627  0.73215036  0.79303042     0.87500
H1034       H  0.29653824  0.74109515  0.71610359    -0.06700
O1035       O  0.25017559  0.74170328  0.69198955    -0.75700
Mg1036     Mg  0.27404484  0.76678649  0.77793440     1.58000
H1037       H  0.23247384  0.76884425  0.68333869    -0.06700
C1038       C  0.19404779  0.82207097  0.75051281     0.92500
O1039       O  0.23010604  0.79486963  0.80998131    -0.82900
C1040       C  0.24718144  0.78937059  0.82099144     0.92500
O1041       O  0.17033411  0.73393005  0.69485131    -0.82900
Mg1042     Mg  0.26062941  0.70846306  0.70737887     1.58200
O1043       O  0.20461385  0.81337862  0.76662899    -0.81300
O1044       O  0.29024557  0.67841973  0.75193887    -0.83000
C1045       C  0.47151986  0.74029172  0.85143983     0.86300
C1046       C  0.47015863  0.76188673  0.86438344    -0.53900
C1047       C  0.48809509  0.76691384  0.87680523     0.09200
C1048       C  0.50663119  0.74929306  0.87543618     0.20200
C1049       C  0.49305605  0.74384131  0.83797483    -0.54700
C1050       C  0.51161841  0.74786793  0.85046599     0.09300
C1051       C  0.47751247  0.72245011  0.86858634    -0.54200
C1052       C  0.49561008  0.72689236  0.88134887     0.09900
H1053       H  0.45622324  0.77312511  0.86298865     0.14400
H1054       H  0.52126499  0.75310506  0.88573914     0.00100
H1055       H  0.49387640  0.74474306  0.82022717     0.14700
H1056       H  0.46806055  0.70730255  0.87042775     0.14500
C1057       C  0.34031322  0.73560156  0.79351391     0.01100
C1058       C  0.35323987  0.75513585  0.79330249     0.04000
C1059       C  0.37526455  0.75460876  0.80070534    -0.12100
C1060       C  0.38487576  0.73453576  0.80763914     0.23300
C1061       C  0.37248506  0.71485901  0.80683301    -0.12700
C1062       C  0.35025985  0.71533656  0.79998146     0.04700
C1063       C  0.40699723  0.73455606  0.81836440     0.27100
C1064       C  0.42616235  0.72947692  0.80649066    -0.13400
C1065       C  0.44696509  0.72890320  0.81717289     0.05200
C1066       C  0.44907474  0.73549987  0.83967520    -0.09300
C1067       C  0.42900474  0.73816026  0.85178668     0.06000
C1068       C  0.40842074  0.73828993  0.84107263    -0.13700
Br1069     Br  0.38585830  0.68737920  0.81627555    -0.05800
Br1070     Br  0.34138910  0.78270784  0.78207969    -0.00100
Br1071     Br  0.47028236  0.71397362  0.80172463     0.00300
Br1072     Br  0.38165814  0.74386958  0.85749337    -0.04100
Br1073     Br  0.33338523  0.68825818  0.80114707     0.00400
Br1074     Br  0.39220197  0.78157917  0.80228638    -0.03400
Br1075     Br  0.42351538  0.72291812  0.77545717    -0.04200
Br1076     Br  0.42832936  0.74081115  0.88348070    -0.00300
C1077       C  0.02874758  0.74981836  0.64634374     0.01100
C1078       C  0.04208825  0.73057631  0.64766923     0.04000
C1079       C  0.06212646  0.73102037  0.65948245    -0.12100
C1080       C  0.06922611  0.75063177  0.66965947     0.23300
C1081       C  0.05512918  0.76907384  0.67025558    -0.12700
C1082       C  0.03472767  0.76852026  0.65914154     0.04700
C1083       C  0.09226931  0.75236372  0.67785583     0.27100
C1084       C  0.09729987  0.74896165  0.70032620    -0.13400
C1085       C  0.11937720  0.74963873  0.70757789     0.05200
C1086       C  0.13648983  0.75309060  0.69228043    -0.09300
C1087       C  0.13142594  0.75678551  0.66988896     0.06000
C1088       C  0.10935214  0.75670241  0.66273453    -0.13700
Br1089     Br  0.06442015  0.79550900  0.68538865    -0.05800
Br1090     Br  0.03446585  0.70376568  0.63248687    -0.00100
Br1091     Br  0.12631022  0.74506291  0.73832995     0.00300
Br1092     Br  0.10241629  0.76224048  0.63209957    -0.04100
Br1093     Br  0.01501657  0.79352657  0.66192630     0.00400
Br1094     Br  0.08070785  0.70506608  0.66092665    -0.03400
Br1095     Br  0.07398348  0.74261761  0.72090710    -0.04200
Br1096     Br  0.15482002  0.76195775  0.64905316    -0.00300
C1097       C  0.04408824  0.51450339  0.11076410     0.01100
C1098       C  0.04952442  0.53359192  0.12295024     0.04000
C1099       C  0.05886564  0.53145108  0.14416338    -0.12100
C1100       C  0.06231427  0.51030076  0.15345901     0.23300
C1101       C  0.05592416  0.49129908  0.14176722    -0.12700
C1102       C  0.04694399  0.49334951  0.12044374     0.04700
C1103       C  0.07504749  0.50789012  0.17426313     0.27100
C1104       C  0.09795958  0.50475003  0.17312455    -0.13400
C1105       C  0.11041447  0.50268112  0.19254925     0.05200
C1106       C  0.10022632  0.50487719  0.21336066    -0.09300
C1107       C  0.07712454  0.50685389  0.21450694     0.06000
C1108       C  0.06452374  0.50829339  0.19493943    -0.13700
Br1109     Br  0.06040832  0.46240485  0.15477980    -0.05800
Br1110     Br  0.04565918  0.56264122  0.11012383    -0.00100
Br1111     Br  0.14116880  0.49501666  0.19034997     0.00300
Br1112     Br  0.03294099  0.51115886  0.19626365    -0.04100
Br1113     Br  0.03832014  0.46700769  0.10472234     0.00400
Br1114     Br  0.06821759  0.55737489  0.16008683    -0.03400
Br1115     Br  0.11234677  0.50368604  0.14476770    -0.04200
Br1116     Br  0.06278153  0.50769591  0.24272380    -0.00300
C1117       C  0.00832043  0.59824849  0.54702147     0.01100
C1118       C  0.99766294  0.61517181  0.53490049     0.04000
C1119       C  0.99558293  0.63653031  0.54386356    -0.12100
C1120       C  0.00427440  0.64114790  0.56492343     0.23300
C1121       C  0.01504906  0.62429516  0.57700224    -0.12700
C1122       C  0.01691667  0.60285214  0.56815566     0.04700
C1123       C  0.00148838  0.66355338  0.57463518     0.27100
C1124       C  0.01646712  0.68056331  0.56962905    -0.13400
C1125       C  0.01359264  0.70185556  0.57857503     0.05200
C1126       C  0.99556887  0.70641872  0.59269369    -0.09300
C1127       C  0.98132161  0.68877662  0.59861186     0.06000
C1128       C  0.98400764  0.66766848  0.58919086    -0.13700
Br1129     Br  0.02724801  0.63074629  0.60568493    -0.05800
Br1130     Br  0.98487168  0.60879407  0.50645355    -0.00100
Br1131     Br  0.03595965  0.72385897  0.57314813     0.00300
Br1132     Br  0.96357060  0.64411331  0.59598340    -0.04100
Br1133     Br  0.03170826  0.57991232  0.58479074     0.00400
Br1134     Br  0.98044475  0.65947237  0.52753762    -0.03400
Br1135     Br  0.04119764  0.67437618  0.55070646    -0.04200
Br1136     Br  0.95822792  0.69247004  0.61986564    -0.00300
C1137       C  0.04853749  0.48099186  0.39597897     0.01100
C1138       C  0.03537654  0.47984643  0.37663219     0.04000
C1139       C  0.04517657  0.48179507  0.35564988    -0.12100
C1140       C  0.06793618  0.48577364  0.35377883     0.23300
C1141       C  0.08111069  0.48672123  0.37290761    -0.12700
C1142       C  0.07162554  0.48366036  0.39384859     0.04700
C1143       C  0.07819473  0.48903647  0.33173943     0.27100
C1144       C  0.08948174  0.47149705  0.32161934    -0.13400
C1145       C  0.10153681  0.47519622  0.30212018     0.05200
C1146       C  0.10180419  0.49645432  0.29212680    -0.09300
C1147       C  0.08891449  0.51356701  0.30152311     0.06000
C1148       C  0.07763134  0.50996551  0.32147994    -0.13700
Br1149     Br  0.11226257  0.49264300  0.37032518    -0.05800
Br1150     Br  0.00375576  0.47684472  0.37838744    -0.00100
Br1151     Br  0.11879203  0.45117059  0.29066678     0.00300
Br1152     Br  0.06202768  0.53396193  0.33538775    -0.04100
Br1153     Br  0.09081461  0.48168890  0.41931542     0.00400
Br1154     Br  0.02750981  0.47921414  0.32925181    -0.03400
Br1155     Br  0.08891720  0.44248537  0.33514627    -0.04200
Br1156     Br  0.08607388  0.54203171  0.28705943    -0.00300
C1157       C  0.51427137  0.60340446  0.94628091     0.01100
C1158       C  0.52167385  0.62099090  0.95975258     0.04000
C1159       C  0.52198333  0.64285424  0.95145791    -0.12100
C1160       C  0.51389792  0.64745037  0.93012379     0.23300
C1161       C  0.50643386  0.63001443  0.91671888    -0.12700
C1162       C  0.50711407  0.60805195  0.92450770     0.04700
C1163       C  0.51188798  0.67062095  0.92191464     0.27100
C1164       C  0.49259242  0.68269348  0.92610786    -0.13400
C1165       C  0.48843193  0.70257196  0.91462283     0.05200
C1166       C  0.50337207  0.71046762  0.89849651    -0.09300
C1167       C  0.52413477  0.69985940  0.89683467     0.06000
C1168       C  0.52816456  0.67979003  0.90820661    -0.13700
Br1169     Br  0.49453112  0.63643900  0.88779145    -0.05800
Br1170     Br  0.52944822  0.61574002  0.99022192    -0.00100
Br1171     Br  0.46246443  0.71910274  0.92186488     0.00300
Br1172     Br  0.55553414  0.66403580  0.90430126    -0.04100
Br1173     Br  0.49877619  0.58439603  0.90482902     0.00400
Br1174     Br  0.53291567  0.66673667  0.96940011    -0.03400
Br1175     Br  0.47132441  0.67121625  0.94682891    -0.04200
Br1176     Br  0.54733809  0.71208880  0.87922481    -0.00300
C1177       C  0.49267951  0.29033232  0.09735482     0.01100
C1178       C  0.47934865  0.29631439  0.07874001     0.04000
C1179       C  0.47876099  0.31833750  0.07080985    -0.12100
C1180       C  0.49101843  0.33491069  0.08126987     0.23300
C1181       C  0.50319184  0.32977734  0.10029507    -0.12700
C1182       C  0.50377873  0.30792354  0.10867506     0.04700
C1183       C  0.49145695  0.35787373  0.07218932     0.27100
C1184       C  0.50786620  0.36396059  0.05695652    -0.13400
C1185       C  0.50946953  0.38602434  0.04955463     0.05200
C1186       C  0.49454192  0.40213856  0.05720218    -0.09300
C1187       C  0.47770115  0.39591318  0.07197193     0.06000
C1188       C  0.47628378  0.37386367  0.07958200    -0.13700
Br1189     Br  0.51949687  0.35328041  0.11459464    -0.05800
Br1190     Br  0.45994678  0.27559292  0.06437502    -0.00100
Br1191     Br  0.53171041  0.39401329  0.02830758     0.00300
Br1192     Br  0.45392497  0.36552888  0.10054719    -0.04100
Br1193     Br  0.52018789  0.30411454  0.13576046     0.00400
Br1194     Br  0.46109226  0.32622978  0.04534629    -0.03400
Br1195     Br  0.52828087  0.34195574  0.04644182    -0.04200
Br1196     Br  0.45712299  0.41776336  0.08249374    -0.00300
C1197       C  0.48365364  0.89683578  0.93437696     0.01100
C1198       C  0.50391887  0.88537798  0.93412211     0.04000
C1199       C  0.50510313  0.86394780  0.92522242    -0.12100
C1200       C  0.48585484  0.85345860  0.91749875     0.23300
C1201       C  0.46553048  0.86474186  0.91814404    -0.12700
C1202       C  0.46463162  0.88666225  0.92575710     0.04700
C1203       C  0.48724834  0.83124578  0.90722301     0.27100
C1204       C  0.48615247  0.82940306  0.88412903    -0.13400
C1205       C  0.48671736  0.80846523  0.87420387     0.05200
C1206       C  0.48965129  0.78912101  0.88731006    -0.09300
C1207       C  0.49200665  0.79119270  0.91035883     0.06000
C1208       C  0.48999583  0.81210792  0.92033798    -0.13700
Br1209     Br  0.43893521  0.85017327  0.90842650    -0.05800
Br1210     Br  0.53004977  0.89882224  0.94632164    -0.00100
Br1211     Br  0.48452292  0.80683015  0.84235435     0.00300
Br1212     Br  0.49011661  0.81457348  0.95205361    -0.04100
Br1213     Br  0.43791410  0.90343084  0.92219806     0.00400
Br1214     Br  0.53318079  0.84911011  0.92306740    -0.03400
Br1215     Br  0.48402409  0.85577347  0.86604039    -0.04200
Br1216     Br  0.49756605  0.76556741  0.92849147    -0.00300
C1217       C  0.51503968  0.10052109  0.03098209     0.01100
C1218       C  0.53304863  0.11088600  0.04139671     0.04000
C1219       C  0.53041294  0.13195118  0.05088096    -0.12100
C1220       C  0.50976883  0.14269809  0.05000199     0.23300
C1221       C  0.49198830  0.13264298  0.03898697    -0.12700
C1222       C  0.49464826  0.11167307  0.02936826     0.04700
C1223       C  0.50640542  0.16379369  0.06206212     0.27100
C1224       C  0.50093601  0.16309788  0.08446348    -0.13400
C1225       C  0.49911492  0.18278616  0.09661152     0.05200
C1226       C  0.50167616  0.20399915  0.08614513    -0.09300
C1227       C  0.50969177  0.20408397  0.06399106     0.06000
C1228       C  0.51068056  0.18421172  0.05182583    -0.13700
Br1229     Br  0.46385676  0.14746376  0.03765248    -0.05800
Br1230     Br  0.56097078  0.09573727  0.04371323    -0.00100
Br1231     Br  0.49608785  0.17932096  0.12832207     0.00300
Br1232     Br  0.51902154  0.18451228  0.02109467    -0.04100
Br1233     Br  0.47046801  0.09847239  0.01344077     0.00400
Br1234     Br  0.55482612  0.14585509  0.06581841    -0.03400
Br1235     Br  0.49664702  0.13462993  0.09863230    -0.04200
Br1236     Br  0.52521344  0.22890636  0.05129302    -0.00300
C1237       C  0.28588166  0.10409946  0.49065655     0.01100
C1238       C  0.29429564  0.08742905  0.50484090     0.04000
C1239       C  0.31554535  0.07867252  0.50162376    -0.12100
C1240       C  0.32845292  0.08599232  0.48382393     0.23300
C1241       C  0.31925195  0.10058780  0.46816346    -0.12700
C1242       C  0.29792968  0.10936838  0.47136912     0.04700
C1243       C  0.35196350  0.07902902  0.48233619     0.27100
C1244       C  0.36839683  0.09185770  0.49255070    -0.13400
C1245       C  0.39041798  0.08443122  0.49317234     0.05200
C1246       C  0.39616865  0.06367838  0.48397825    -0.09300
C1247       C  0.37953980  0.05101250  0.47340914     0.06000
C1248       C  0.35769403  0.05895893  0.47220187    -0.13700
Br1249     Br  0.33643106  0.10913060  0.44279134    -0.05800
Br1250     Br  0.27646459  0.07559301  0.52818381    -0.00100
Br1251     Br  0.41248249  0.10326759  0.50641845     0.00300
Br1252     Br  0.33524140  0.04216799  0.45712977    -0.04100
Br1253     Br  0.28577271  0.12823235  0.44896066     0.00400
Br1254     Br  0.32751257  0.05725427  0.52216229    -0.03400
Br1255     Br  0.36043036  0.11956027  0.50613916    -0.04200
Br1256     Br  0.38565130  0.02169415  0.46243971    -0.00300
C1257       C  0.98425483  0.90369954  0.55149565     0.01100
C1258       C  0.98769342  0.89774555  0.57383916     0.04000
C1259       C  0.98999542  0.87529603  0.57978888    -0.12100
C1260       C  0.98871230  0.85877027  0.56356235     0.23300
C1261       C  0.98561957  0.86461425  0.54130759    -0.12700
C1262       C  0.98369996  0.88697074  0.53519151     0.04700
C1263       C  0.98909355  0.83510761  0.56997286     0.27100
C1264       C  0.00891170  0.82304144  0.56997532    -0.13400
C1265       C  0.00902781  0.80065662  0.57667702     0.05200
C1266       C  0.98930889  0.79051332  0.58425005    -0.09300
C1267       C  0.96922152  0.80151845  0.57923585     0.06000
C1268       C  0.96914280  0.82410345  0.57382296    -0.13700
Br1269     Br  0.98351172  0.84172283  0.51926465    -0.05800
Br1270     Br  0.98803984  0.91995698  0.59662407    -0.00100
Br1271     Br  0.03568961  0.78371234  0.57288228     0.00300
Br1272     Br  0.94159404  0.84001690  0.57143102    -0.04100
Br1273     Br  0.98140182  0.89426593  0.50415265     0.00400
Br1274     Br  0.99425068  0.86691682  0.61026142    -0.03400
Br1275     Br  0.03576599  0.83735586  0.56076395    -0.04200
Br1276     Br  0.94251978  0.78525511  0.57398876    -0.00300
C1277       C  0.10065782  0.05196291  0.51217413     0.01100
C1278       C  0.11549265  0.05395508  0.53016745     0.04000
C1279       C  0.13695347  0.06226665  0.52682792    -0.12100
C1280       C  0.14383644  0.06882158  0.50562334     0.23300
C1281       C  0.12948190  0.06614605  0.48754554    -0.12700
C1282       C  0.10806729  0.05763241  0.49071609     0.04700
C1283       C  0.16506918  0.08095007  0.50291449     0.27100
C1284       C  0.16516205  0.10411280  0.50483982    -0.13400
C1285       C  0.18515688  0.11582311  0.50447742     0.05200
C1286       C  0.20549353  0.10449135  0.50190517    -0.09300
C1287       C  0.20515018  0.08144058  0.49819638     0.06000
C1288       C  0.18503944  0.06965749  0.49913248    -0.13700
Br1289     Br  0.13922343  0.07469248  0.45846187    -0.05800
Br1290     Br  0.10632024  0.04670878  0.55980183    -0.00100
Br1291     Br  0.18408786  0.14770367  0.50623978     0.00300
Br1292     Br  0.18474384  0.03796281  0.49587021    -0.04100
Br1293     Br  0.08945692  0.05293871  0.46525855     0.00400
Br1294     Br  0.15693966  0.06546808  0.55145326    -0.03400
Br1295     Br  0.13761850  0.11978590  0.50829308    -0.04200
Br1296     Br  0.23202736  0.06582899  0.49208237    -0.00300
C1297       C  0.41575470  0.00392612  0.19711763     0.01100
C1298       C  0.42047976  0.98484097  0.18437265     0.04000
C1299       C  0.42813788  0.98706379  0.16257727    -0.12100
C1300       C  0.43344413  0.00806718  0.15409629     0.23300
C1301       C  0.43316104  0.02646449  0.16817925    -0.12700
C1302       C  0.42518158  0.02427203  0.18989408     0.04700
C1303       C  0.44073248  0.01046273  0.13081991     0.27100
C1304       C  0.46305898  0.00748746  0.12538392    -0.13400
C1305       C  0.46983015  0.00883110  0.10324812     0.05200
C1306       C  0.45430126  0.01350770  0.08637535    -0.09300
C1307       C  0.43199724  0.01686007  0.09191958     0.06000
C1308       C  0.42523648  0.01521812  0.11407912    -0.13700
Br1309     Br  0.44360047  0.05469642  0.15748480    -0.05800
Br1310     Br  0.42112623  0.95574379  0.19758149    -0.00100
Br1311     Br  0.50031985  0.00309472  0.09614935     0.00300
Br1312     Br  0.39472381  0.01955078  0.12167955    -0.04100
Br1313     Br  0.43010815  0.04841379  0.21009816     0.00400
Br1314     Br  0.43134454  0.96131188  0.14414661    -0.03400
Br1315     Br  0.48430587  0.00140610  0.14841169    -0.04200
Br1316     Br  0.41087904  0.02488130  0.06939983    -0.00300
C1317       C  0.44161141  0.99688045  0.39431400     0.01100
C1318       C  0.42444670  0.01081079  0.38616664     0.04000
C1319       C  0.41869876  0.01075158  0.36360425    -0.12100
C1320       C  0.42909929  0.99617835  0.34893328     0.23300
C1321       C  0.44566597  0.98185557  0.35681749    -0.12700
C1322       C  0.45225691  0.98242462  0.37921173     0.04700
C1323       C  0.42198757  0.99572571  0.32530850     0.27100
C1324       C  0.40306643  0.98386854  0.31922672    -0.13400
C1325       C  0.39465041  0.98520798  0.29750220     0.05200
C1326       C  0.40551906  0.99826363  0.28111239    -0.09300
C1327       C  0.42444542  0.01056076  0.28778433     0.06000
C1328       C  0.43278949  0.00882000  0.30950821    -0.13700
Br1329     Br  0.45931849  0.96146857  0.33660323    -0.05800
Br1330     Br  0.40745599  0.02948863  0.40551727    -0.00100
Br1331     Br  0.36778806  0.96921390  0.29196664     0.00300
Br1332     Br  0.45883319  0.02500796  0.31813767    -0.04100
Br1333     Br  0.47682333  0.96402067  0.38817813     0.00400
Br1334     Br  0.39637644  0.03079961  0.35245191    -0.03400
Br1335     Br  0.38852421  0.96589616  0.34131129    -0.04200
Br1336     Br  0.43757052  0.03262609  0.26876163    -0.00300
C1337       C  0.21147525  0.41017420  0.00632006     0.01100
C1338       C  0.19127107  0.40192289  0.99736298     0.04000
C1339       C  0.17098248  0.41171105  0.00288820    -0.12100
C1340       C  0.17029063  0.43039040  0.01644755     0.23300
C1341       C  0.18990215  0.43908236  0.02510917    -0.12700
C1342       C  0.21029857  0.42872378  0.02075125     0.04700
C1343       C  0.14863547  0.44086728  0.02105341     0.27100
C1344       C  0.13955522  0.45588555  0.00566990    -0.13400
C1345       C  0.11769609  0.46318420  0.00801787     0.05200
C1346       C  0.10468955  0.45522956  0.02554386    -0.09300
C1347       C  0.11397626  0.44086143  0.04140910     0.06000
C1348       C  0.13600461  0.43380370  0.03925342    -0.13700
Br1349     Br  0.18848652  0.46531354  0.04311257    -0.05800
Br1350     Br  0.18972904  0.37789319  0.97662007    -0.00100
Br1351     Br  0.10547136  0.48400276  0.98707971     0.00300
Br1352     Br  0.14876897  0.41388614  0.06072013    -0.04100
Br1353     Br  0.23568185  0.43946850  0.03665673     0.00400
Br1354     Br  0.14352380  0.39966156  0.99177404    -0.03400
Br1355     Br  0.15688461  0.46569189  0.98087206    -0.04200
Br1356     Br  0.09623213  0.43029452  0.06555232    -0.00300
C1357       C  0.40486269  0.44891491  0.99279588     0.01100
C1358       C  0.39685997  0.44028078  0.97262804     0.04000
C1359       C  0.37528730  0.43187451  0.97130625    -0.12100
C1360       C  0.36181485  0.43152012  0.99013929     0.23300
C1361       C  0.36965816  0.44003414  0.01020380    -0.12700
C1362       C  0.39088982  0.44921010  0.01145141     0.04700
C1363       C  0.33939865  0.42194547  0.98896298     0.27100
C1364       C  0.32121123  0.43552225  0.98409077    -0.13400
C1365       C  0.29988112  0.42642944  0.98296227     0.05200
C1366       C  0.29629221  0.40409061  0.98951265    -0.09300
C1367       C  0.31519290  0.39000510  0.99119054     0.06000
C1368       C  0.33649191  0.39907401  0.99156632    -0.13700
Br1369     Br  0.35123680  0.43871811  0.03607101    -0.05800
Br1370     Br  0.41548172  0.43870464  0.94690234    -0.00100
Br1371     Br  0.27820452  0.44303877  0.96637450     0.00300
Br1372     Br  0.36193250  0.38024299  0.99595312    -0.04100
Br1373     Br  0.39996652  0.46337454  0.03850961     0.00400
Br1374     Br  0.36412929  0.42038383  0.94378951    -0.03400
Br1375     Br  0.32580814  0.46666348  0.97851829    -0.04200
Br1376     Br  0.31283481  0.35796791  0.99131109    -0.00300
C1377       C  0.14971809  0.45818378  0.24593652     0.01100
C1378       C  0.13793658  0.44252462  0.23286136     0.04000
C1379       C  0.14507441  0.42029927  0.23168421    -0.12100
C1380       C  0.16511915  0.41377129  0.24142226     0.23300
C1381       C  0.17700631  0.42908056  0.25417323    -0.12700
C1382       C  0.16864343  0.45055651  0.25766169     0.04700
C1383       C  0.17364012  0.39075532  0.23840526     0.27100
C1384       C  0.17294773  0.37537816  0.25594692    -0.13400
C1385       C  0.18283727  0.35435098  0.25376821     0.05200
C1386       C  0.19197848  0.34777695  0.23330021    -0.09300
C1387       C  0.19063439  0.36256746  0.21517111     0.06000
C1388       C  0.18249437  0.38423258  0.21798500    -0.13700
Br1389     Br  0.20500797  0.42054583  0.26686921    -0.05800
Br1390     Br  0.11247397  0.45029277  0.21536663    -0.00100
Br1391     Br  0.18473255  0.33543802  0.27951956     0.00300
Br1392     Br  0.18375962  0.40517520  0.19385311    -0.04100
Br1393     Br  0.18182769  0.46782379  0.28100444     0.00400
Br1394     Br  0.12717191  0.39830663  0.21702604    -0.03400
Br1395     Br  0.15812598  0.38318668  0.28294801    -0.04200
Br1396     Br  0.19783029  0.35274088  0.18589823    -0.00300
C1397       C  0.23440422  0.19631759  0.34775695     0.01100
C1398       C  0.22098794  0.20578599  0.36470809     0.04000
C1399       C  0.22279114  0.19834025  0.38672257    -0.12100
C1400       C  0.23733240  0.18117677  0.39234178     0.23300
C1401       C  0.25002327  0.17107067  0.37590442    -0.12700
C1402       C  0.24871686  0.17843718  0.35378140     0.04700
C1403       C  0.23839514  0.17297876  0.41552579     0.27100
C1404       C  0.25366008  0.18192412  0.43050224    -0.13400
C1405       C  0.25509232  0.17362757  0.45227671     0.05200
C1406       C  0.24053126  0.15660719  0.45956344    -0.09300
C1407       C  0.22461804  0.14844008  0.44439134     0.06000
C1408       C  0.22386499  0.15635184  0.42251743    -0.13700
Br1409     Br  0.26915506  0.14673743  0.38409211    -0.05800
Br1410     Br  0.19913324  0.22861004  0.35914325    -0.00100
Br1411     Br  0.27902601  0.18419821  0.47057518     0.00300
Br1412     Br  0.20278330  0.14446321  0.40171867    -0.04100
Br1413     Br  0.26674947  0.16292992  0.33257283     0.00400
Br1414     Br  0.20509958  0.21147421  0.40972384    -0.03400
Br1415     Br  0.27288691  0.20542989  0.42074440    -0.04200
Br1416     Br  0.20273175  0.12710981  0.45284800    -0.00300
C1417       C  0.45531344  0.24450507  0.14271888     0.01100
C1418       C  0.43445538  0.24417844  0.13196241     0.04000
C1419       C  0.41484872  0.24510345  0.14421667    -0.12100
C1420       C  0.41556903  0.24490257  0.16736439     0.23300
C1421       C  0.43605483  0.24585166  0.17826030    -0.12700
C1422       C  0.45579758  0.24663125  0.16599678     0.04700
C1423       C  0.39459097  0.24277140  0.17986180     0.27100
C1424       C  0.38429378  0.26160078  0.18881684    -0.13400
C1425       C  0.36313031  0.25985886  0.19815824     0.05200
C1426       C  0.35195447  0.23938742  0.19813735    -0.09300
C1427       C  0.36245823  0.22047252  0.18957632     0.06000
C1428       C  0.38382770  0.22210721  0.18077979    -0.13700
Br1429     Br  0.43694448  0.24513007  0.21007990    -0.05800
Br1430     Br  0.43183631  0.24266341  0.10034400    -0.00100
Br1431     Br  0.34966295  0.28541772  0.21149616     0.00300
Br1432     Br  0.39826145  0.19611734  0.16935570    -0.04100
Br1433     Br  0.48306425  0.25044899  0.18167319     0.00400
Br1434     Br  0.38660522  0.24638985  0.12934387    -0.03400
Br1435     Br  0.39894296  0.28988641  0.18764795    -0.04200
Br1436     Br  0.34700363  0.19259549  0.18842350    -0.00300
C1437       C  0.35697504  0.04370276  0.24126401     0.01100
C1438       C  0.35808781  0.05497851  0.26166471     0.04000
C1439       C  0.34638354  0.07486949  0.26472902    -0.12100
C1440       C  0.33376559  0.08398848  0.24742880     0.23300
C1441       C  0.33213062  0.07270898  0.22725387    -0.12700
C1442       C  0.34342968  0.05255753  0.22420661     0.04700
C1443       C  0.32296170  0.10592074  0.25028021     0.27100
C1444       C  0.30054765  0.10725829  0.25591362    -0.13400
C1445       C  0.29035019  0.12805524  0.25860833     0.05200
C1446       C  0.30291125  0.14782614  0.25691005    -0.09300
C1447       C  0.32571654  0.14619864  0.25196198     0.06000
C1448       C  0.33539132  0.12541881  0.24793074    -0.13700
Br1449     Br  0.31493164  0.08546199  0.20352359    -0.05800
Br1450     Br  0.37684891  0.04475329  0.28521769    -0.00100
Br1451     Br  0.25887574  0.12881401  0.26327525     0.00300
Br1452     Br  0.36584823  0.12348803  0.23897904    -0.04100
Br1453     Br  0.33992973  0.03731512  0.19646374     0.00400
Br1454     Br  0.34815687  0.09031300  0.29250972    -0.03400
Br1455     Br  0.28390097  0.08032998  0.25992963    -0.04200
Br1456     Br  0.34461052  0.17196034  0.25201738    -0.00300
C1457       C  0.25051183  0.35898253  0.04232594     0.01100
C1458       C  0.23815810  0.33923025  0.04584834     0.04000
C1459       C  0.23886300  0.32845093  0.06660453    -0.12100
C1460       C  0.25316202  0.33603819  0.08325827     0.23300
C1461       C  0.26487162  0.35579692  0.08006260    -0.12700
C1462       C  0.26166822  0.36824476  0.06080199     0.04700
C1463       C  0.25524346  0.32408079  0.10464482     0.27100
C1464       C  0.24800782  0.33432350  0.12409078    -0.13400
C1465       C  0.25362857  0.32522838  0.14465233     0.05200
C1466       C  0.26216276  0.30344157  0.14614925    -0.09300
C1467       C  0.26824075  0.29247796  0.12639199     0.06000
C1468       C  0.26613193  0.30349806  0.10592210    -0.13700
Br1469     Br  0.28603437  0.36570202  0.10184105    -0.05800
Br1470     Br  0.21986814  0.32607496  0.02349491    -0.00100
Br1471     Br  0.25293951  0.34446738  0.16998392     0.00300
Br1472     Br  0.27878966  0.29077242  0.07967921    -0.04100
Br1473     Br  0.27033713  0.39905367  0.06172839     0.00400
Br1474     Br  0.22022614  0.30317554  0.07250102    -0.03400
Br1475     Br  0.23042908  0.36099925  0.12265797    -0.04200
Br1476     Br  0.27898766  0.26236126  0.12644302    -0.00300
C1477       C  0.99205543  0.28609145  0.39653294     0.01100
C1478       C  0.00964591  0.29467058  0.40939209     0.04000
C1479       C  0.00742281  0.31510414  0.42020624    -0.12100
C1480       C  0.98720928  0.32648803  0.41965661     0.23300
C1481       C  0.96891147  0.31683795  0.40917513    -0.12700
C1482       C  0.97127778  0.29687402  0.39743832     0.04700
C1483       C  0.98546535  0.34893434  0.42952554     0.27100
C1484       C  0.98313751  0.35137712  0.45245066    -0.13400
C1485       C  0.98343676  0.37260887  0.46196987     0.05200
C1486       C  0.98486687  0.39178579  0.44840108    -0.09300
C1487       C  0.98599164  0.38916866  0.42520129     0.06000
C1488       C  0.98682115  0.36784652  0.41593344    -0.13700
Br1489     Br  0.94070310  0.33162615  0.41045324    -0.05800
Br1490     Br  0.03671505  0.27815273  0.41325442    -0.00100
Br1491     Br  0.98331052  0.37475181  0.49376485     0.00300
Br1492     Br  0.98997206  0.36438830  0.38444790    -0.04100
Br1493     Br  0.94582312  0.28563159  0.38224407     0.00400
Br1494     Br  0.03241542  0.32812586  0.43504103    -0.03400
Br1495     Br  0.97949357  0.32538034  0.47073023    -0.04200
Br1496     Br  0.98510736  0.41449354  0.40559600    -0.00300
C1497       C  0.99585393  0.20737483  0.39456713     0.01100
C1498       C  0.99449982  0.20924577  0.41773920     0.04000
C1499       C  0.99474810  0.19004697  0.43109337    -0.12100
C1500       C  0.99686818  0.16903864  0.42138752     0.23300
C1501       C  0.99690160  0.16705366  0.39832014    -0.12700
C1502       C  0.99581512  0.18604877  0.38497301     0.04700
C1503       C  0.99971364  0.14883898  0.43510708     0.27100
C1504       C  0.02097903  0.14231140  0.44185630    -0.13400
C1505       C  0.02436150  0.12143364  0.45174736     0.05200
C1506       C  0.00634784  0.10692055  0.45493381    -0.09300
C1507       C  0.98482173  0.11409642  0.44908853     0.06000
C1508       C  0.98160555  0.13496270  0.43919362    -0.13700
Br1509     Br  0.99900271  0.13811949  0.38500124    -0.05800
Br1510     Br  0.99321567  0.23784923  0.43147388    -0.00100
Br1511     Br  0.05401030  0.11249425  0.45935835     0.00300
Br1512     Br  0.95242711  0.14452462  0.43057768    -0.04100
Br1513     Br  0.99267681  0.18230464  0.35357405     0.00400
Br1514     Br  0.99260390  0.19230244  0.46271079    -0.03400
Br1515     Br  0.04561222  0.16179408  0.43657346    -0.04200
Br1516     Br  0.95930221  0.09589910  0.45503070    -0.00300
C1517       C  0.03700575  0.25046734  0.33541329     0.01100
C1518       C  0.04427786  0.27107203  0.32653870     0.04000
C1519       C  0.06549510  0.27290536  0.31727272    -0.12100
C1520       C  0.07939703  0.25430261  0.31648864     0.23300
C1521       C  0.07119507  0.23345990  0.32248055    -0.12700
C1522       C  0.04947163  0.23140826  0.32988494     0.04700
C1523       C  0.10210958  0.25614488  0.30787854     0.27100
C1524       C  0.10689268  0.24874070  0.28642145    -0.13400
C1525       C  0.12875814  0.24850791  0.27898715     0.05200
C1526       C  0.14574061  0.25685326  0.29249355    -0.09300
C1527       C  0.14090194  0.26478167  0.31374122     0.06000
C1528       C  0.11913907  0.26406232  0.32157277    -0.13700
Br1529     Br  0.08974643  0.20750977  0.32052241    -0.05800
Br1530     Br  0.02489836  0.29633415  0.32426691    -0.00100
Br1531     Br  0.13561816  0.23557311  0.25077107     0.00300
Br1532     Br  0.11258219  0.27374387  0.35109890    -0.04100
Br1533     Br  0.03580203  0.20303523  0.32602161     0.00400
Br1534     Br  0.07570762  0.30079431  0.30547920    -0.03400
Br1535     Br  0.08342865  0.23898588  0.26720764    -0.04200
Br1536     Br  0.16386602  0.27748692  0.33172729    -0.00300
C1537       C  0.93323133  0.99705569  0.09904070     0.01100
C1538       C  0.93280676  0.97803433  0.11288206     0.04000
C1539       C  0.92655623  0.97981653  0.13516191    -0.12100
C1540       C  0.91782060  0.99977806  0.14322792     0.23300
C1541       C  0.91594785  0.01816384  0.12903444    -0.12700
C1542       C  0.92450579  0.01728628  0.10746385     0.04700
C1543       C  0.90916427  0.00097049  0.16618660     0.27100
C1544       C  0.88940755  0.99020405  0.17151498    -0.13400
C1545       C  0.88159909  0.99010264  0.19337219     0.05200
C1546       C  0.89223815  0.00298434  0.20998853    -0.09300
C1547       C  0.91112006  0.01548035  0.20369512     0.06000
C1548       C  0.92018060  0.01333780  0.18241146    -0.13700
Br1549     Br  0.90095031  0.04448417  0.13917401    -0.05800
Br1550     Br  0.93801922  0.94879041  0.10129112    -0.00100
Br1551     Br  0.85683756  0.97108492  0.19907956     0.00300
Br1552     Br  0.94765064  0.02774787  0.17518923    -0.04100
Br1553     Br  0.92419515  0.04457927  0.09054691     0.00400
Br1554     Br  0.92985998  0.95474229  0.15480610    -0.03400
Br1555     Br  0.87262161  0.97606697  0.14827695    -0.04200
Br1556     Br  0.92327511  0.03817561  0.22243856    -0.00300
C1557       C  0.89859544  0.01067755  0.29451603     0.01100
C1558       C  0.90269764  0.99241087  0.30890984     0.04000
C1559       C  0.91047749  0.99586171  0.33052973    -0.12100
C1560       C  0.91737398  0.01696239  0.33720465     0.23300
C1561       C  0.91740282  0.03439690  0.32174647    -0.12700
C1562       C  0.90843512  0.03128349  0.30040992     0.04700
C1563       C  0.92663498  0.01995131  0.35983488     0.27100
C1564       C  0.91276859  0.02569065  0.37751036    -0.13400
C1565       C  0.92112540  0.02633686  0.39927383     0.05200
C1566       C  0.94346334  0.02116773  0.40350615    -0.09300
C1567       C  0.95736178  0.01563812  0.38566556     0.06000
C1568       C  0.94900560  0.01521699  0.36396108    -0.13700
Br1569     Br  0.93003353  0.06248787  0.32997344    -0.05800
Br1570     Br  0.90372579  0.96242238  0.29825378    -0.00100
Br1571     Br  0.90204787  0.03496069  0.42310645     0.00300
Br1572     Br  0.96806672  0.00758738  0.33974077    -0.04100
Br1573     Br  0.91213691  0.05483272  0.27905109     0.00400
Br1574     Br  0.91224380  0.97139930  0.35113098    -0.03400
Br1575     Br  0.88222094  0.03242181  0.37174316    -0.04200
Br1576     Br  0.98761140  0.00703615  0.39091144    -0.00300
C1577       C  0.80146809  0.15716253  0.23787258     0.01100
C1578       C  0.78647492  0.14086002  0.23042435     0.04000
C1579       C  0.79262970  0.11838146  0.23039112    -0.12100
C1580       C  0.81334622  0.11195125  0.23868510     0.23300
C1581       C  0.82816768  0.12806581  0.24648692    -0.12700
C1582       C  0.82241327  0.15061402  0.24581830     0.04700
C1583       C  0.81979539  0.08826651  0.23962668     0.27100
C1584       C  0.81553911  0.07569706  0.25871227    -0.13400
C1585       C  0.82566742  0.05492525  0.26165780     0.05200
C1586       C  0.84051702  0.04678595  0.24565732    -0.09300
C1587       C  0.84284692  0.05851366  0.22550552     0.06000
C1588       C  0.83239672  0.07914818  0.22253412    -0.13700
Br1589     Br  0.85637149  0.11903921  0.25838611    -0.05800
Br1590     Br  0.75671847  0.14879534  0.22217905    -0.00100
Br1591     Br  0.81932455  0.03790789  0.28792470     0.00300
Br1592     Br  0.83626379  0.09580523  0.19554936    -0.04100
Br1593     Br  0.84365278  0.17238061  0.25530848     0.00400
Br1594     Br  0.77266644  0.09622544  0.21929586    -0.03400
Br1595     Br  0.79676181  0.08766191  0.28132569    -0.04200
Br1596     Br  0.86155871  0.04787087  0.20236023    -0.00300
C1597       C  0.84414657  0.25095765  0.30120453     0.01100
C1598       C  0.86146817  0.24347514  0.28757366     0.04000
C1599       C  0.88313835  0.24251441  0.29580391    -0.12100
C1600       C  0.88774615  0.24967943  0.31735915     0.23300
C1601       C  0.87065844  0.25749872  0.33087063    -0.12700
C1602       C  0.84885420  0.25784207  0.32297148     0.04700
C1603       C  0.91056034  0.24870416  0.32601617     0.27100
C1604       C  0.91711869  0.23081309  0.33937217    -0.13400
C1605       C  0.93824584  0.23051536  0.34895028     0.05200
C1606       C  0.95375968  0.24715784  0.34354434    -0.09300
C1607       C  0.94701000  0.26505727  0.32985591     0.06000
C1608       C  0.92533754  0.26602311  0.32160279    -0.13700
Br1609     Br  0.87731191  0.26775354  0.36026675    -0.05800
Br1610     Br  0.85605687  0.23581266  0.25713738    -0.00100
Br1611     Br  0.94475245  0.20756738  0.37001940     0.00300
Br1612     Br  0.91544197  0.29140797  0.30478284    -0.04100
Br1613     Br  0.82550582  0.26672874  0.34257085     0.00400
Br1614     Br  0.90667869  0.23134498  0.27765136    -0.03400
Br1615     Br  0.89692464  0.20660085  0.34432890    -0.04200
Br1616     Br  0.96639139  0.28966719  0.32405106    -0.00300
C1617       C  0.64743942  0.25990333  0.18413942     0.01100
C1618       C  0.64078894  0.24431930  0.16781919     0.04000
C1619       C  0.61845935  0.24241981  0.16173878    -0.12100
C1620       C  0.60263273  0.25682586  0.17054729     0.23300
C1621       C  0.60897225  0.27289282  0.18590788    -0.12700
C1622       C  0.63107371  0.27422586  0.19309196     0.04700
C1623       C  0.57959103  0.25584394  0.16225754     0.27100
C1624       C  0.57424429  0.26663596  0.14236180    -0.13400
C1625       C  0.55401150  0.26241116  0.13190573     0.05200
C1626       C  0.53770037  0.24956971  0.14263403    -0.09300
C1627       C  0.54346557  0.23809719  0.16220865     0.06000
C1628       C  0.56417843  0.24158028  0.17220964    -0.13700
Br1629     Br  0.58700231  0.29316110  0.19690219    -0.05800
Br1630     Br  0.66169876  0.22607288  0.15207146    -0.00100
Br1631     Br  0.55070831  0.27097897  0.10129796     0.00300
Br1632     Br  0.57215735  0.22574372  0.19877561    -0.04100
Br1633     Br  0.63771282  0.29553939  0.21574751     0.00400
Br1634     Br  0.60922980  0.22001489  0.14097361    -0.03400
Br1635     Br  0.59534088  0.28632707  0.12884174    -0.04200
Br1636     Br  0.52510843  0.21439718  0.17294431    -0.00300
C1637       C  0.00328119  0.28656459  0.91907107     0.01100
C1638       C  0.02532470  0.29432595  0.92086744     0.04000
C1639       C  0.02975515  0.31458885  0.93150668    -0.12100
C1640       C  0.01241075  0.32721052  0.94021761     0.23300
C1641       C  0.99102779  0.31841351  0.94070400    -0.12700
C1642       C  0.98672355  0.29775365  0.93112252     0.04700
C1643       C  0.01630623  0.35007729  0.94818774     0.27100
C1644       C  0.01895710  0.35416168  0.97084355    -0.13400
C1645       C  0.02015649  0.37605278  0.97861838     0.05200
C1646       C  0.01958989  0.39410307  0.96357150    -0.09300
C1647       C  0.01756877  0.38978725  0.94068031     0.06000
C1648       C  0.01572094  0.36787013  0.93312784    -0.13700
Br1649     Br  0.96729218  0.33544989  0.95329193    -0.05800
Br1650     Br  0.04994613  0.27828481  0.90905111    -0.00100
Br1651     Br  0.02045689  0.38085117  0.01010090     0.00300
Br1652     Br  0.01183089  0.36203967  0.90205077    -0.04100
Br1653     Br  0.95812580  0.28463301  0.93535409     0.00400
Br1654     Br  0.05946426  0.32585051  0.93343700    -0.03400
Br1655     Br  0.02036029  0.32952101  0.99119617    -0.04200
Br1656     Br  0.01769233  0.41356417  0.91920423    -0.00300
C1657       C  0.99062174  0.20779152  0.90443369     0.01100
C1658       C  0.98840379  0.20442700  0.92732689     0.04000
C1659       C  0.98739972  0.18275398  0.93599468    -0.12100
C1660       C  0.98961291  0.16439553  0.92190108     0.23300
C1661       C  0.99272488  0.16776619  0.89914584    -0.12700
C1662       C  0.99240177  0.18929464  0.89029825     0.04700
C1663       C  0.98867745  0.14143508  0.93076100     0.27100
C1664       C  0.00742558  0.13199661  0.94076957    -0.13400
C1665       C  0.00706711  0.10980712  0.94789833     0.05200
C1666       C  0.98812693  0.09657774  0.94432168    -0.09300
C1667       C  0.96929397  0.10615617  0.93433302     0.06000
C1668       C  0.96950458  0.12859770  0.92788194    -0.13700
Br1669     Br  0.99781358  0.14273149  0.88014431    -0.05800
Br1670     Br  0.98561843  0.22945011  0.94666674    -0.00100
Br1671     Br  0.03241853  0.09815649  0.96351875     0.00300
Br1672     Br  0.94363521  0.14183395  0.91468469    -0.04100
Br1673     Br  0.99491314  0.19316430  0.85869709     0.00400
Br1674     Br  0.98245483  0.17809246  0.96706885    -0.03400
Br1675     Br  0.03383877  0.14946685  0.94419831    -0.04200
Br1676     Br  0.94362237  0.08839910  0.92806986    -0.00300
C1677       C  0.03806688  0.24996500  0.86345289     0.01100
C1678       C  0.04685061  0.26829861  0.85177928     0.04000
C1679       C  0.06781009  0.26700637  0.84202494    -0.12100
C1680       C  0.08046912  0.24762430  0.84421850     0.23300
C1681       C  0.07250862  0.22983942  0.85689320    -0.12700
C1682       C  0.05174576  0.23123052  0.86710404     0.04700
C1683       C  0.10276712  0.24646216  0.83430417     0.27100
C1684       C  0.10527079  0.24086455  0.81193054    -0.13400
C1685       C  0.12636912  0.24061798  0.80235419     0.05200
C1686       C  0.14513036  0.24536322  0.81532917    -0.09300
C1687       C  0.14261235  0.25015240  0.83796463     0.06000
C1688       C  0.12146405  0.25108648  0.84730490    -0.13700
Br1689     Br  0.09027489  0.20343059  0.86003662    -0.05800
Br1690     Br  0.03175351  0.29641416  0.85170717    -0.00100
Br1691     Br  0.12929049  0.23511094  0.77117032     0.00300
Br1692     Br  0.11796421  0.25900100  0.87790618    -0.04100
Br1693     Br  0.04365283  0.20781460  0.88701075     0.00400
Br1694     Br  0.07951788  0.29194549  0.82587296    -0.03400
Br1695     Br  0.07965205  0.23374192  0.79444423    -0.04200
Br1696     Br  0.16814381  0.25441724  0.85656473    -0.00300
C1697       C  0.23543743  0.30834186  0.85435912     0.01100
C1698       C  0.21457241  0.31328811  0.86360049     0.04000
C1699       C  0.21302144  0.32012543  0.88566309    -0.12100
C1700       C  0.23224960  0.32389551  0.89803609     0.23300
C1701       C  0.25307549  0.31971300  0.88877056    -0.12700
C1702       C  0.25469182  0.31120778  0.86732693     0.04700
C1703       C  0.23095486  0.33431593  0.92001251     0.27100
C1704       C  0.22816181  0.35737706  0.92132919    -0.13400
C1705       C  0.23124692  0.36815387  0.94152409     0.05200
C1706       C  0.23773966  0.35594680  0.96049532    -0.09300
C1707       C  0.24076669  0.33287069  0.95895916     0.06000
C1708       C  0.23608051  0.32193549  0.93908331    -0.13700
Br1709     Br  0.27954462  0.32650366  0.90527500    -0.05800
Br1710     Br  0.18803663  0.31303871  0.84586112    -0.00100
Br1711     Br  0.22955468  0.40016600  0.94219984     0.00300
Br1712     Br  0.23864318  0.29016585  0.93728880    -0.04100
Br1713     Br  0.28348968  0.30291639  0.85655190     0.00400
Br1714     Br  0.18458140  0.32496483  0.89896820    -0.03400
Br1715     Br  0.22245587  0.37452498  0.89490053    -0.04200
Br1716     Br  0.25603159  0.31696625  0.98199654    -0.00300
C1717       C  0.25062923  0.15801785  0.54490908     0.01100
C1718       C  0.23927332  0.17847477  0.54887956     0.04000
C1719       C  0.24076384  0.18897915  0.56963865    -0.12100
C1720       C  0.25219823  0.17890467  0.58714002     0.23300
C1721       C  0.26249168  0.15847314  0.58397946    -0.12700
C1722       C  0.26042582  0.14744073  0.56373144     0.04700
C1723       C  0.25012498  0.18753313  0.60995543     0.27100
C1724       C  0.26496949  0.20334105  0.61802996    -0.13400
C1725       C  0.26371794  0.21036451  0.64013017     0.05200
C1726       C  0.24825897  0.20049878  0.65485903    -0.09300
C1727       C  0.23332925  0.18444314  0.64637549     0.06000
C1728       C  0.23393786  0.17862042  0.62394133    -0.13700
Br1729     Br  0.27822036  0.14489543  0.60843091    -0.05800
Br1730     Br  0.21741068  0.19067584  0.52899313    -0.00100
Br1731     Br  0.28274697  0.23444351  0.64898895     0.00300
Br1732     Br  0.21264923  0.15798827  0.61208854    -0.04100
Br1733     Br  0.26658587  0.11618606  0.56481297     0.00400
Br1734     Br  0.22588196  0.21676284  0.57501076    -0.03400
Br1735     Br  0.28717826  0.21514014  0.59853164    -0.04200
Br1736     Br  0.21245357  0.16892102  0.66493766    -0.00300
C1737       C  0.49776217  0.29141913  0.61355374     0.01100
C1738       C  0.51817756  0.30268377  0.61544018     0.04000
C1739       C  0.52154948  0.32313780  0.60465334    -0.12100
C1740       C  0.50464670  0.33276383  0.59193102     0.23300
C1741       C  0.48443744  0.32158499  0.58959083    -0.12700
C1742       C  0.48092695  0.30110534  0.60035165     0.04700
C1743       C  0.50764109  0.35533730  0.58225967     0.27100
C1744       C  0.50308502  0.37412264  0.59511277    -0.13400
C1745       C  0.50535024  0.39549413  0.58603107     0.05200
C1746       C  0.51133312  0.39834260  0.56365064    -0.09300
C1747       C  0.51695407  0.37950248  0.55110232     0.06000
C1748       C  0.51523647  0.35809960  0.56047223    -0.13700
Br1749     Br  0.46134125  0.33483780  0.57198599    -0.05800
Br1750     Br  0.54132594  0.29179867  0.63417253    -0.00100
Br1751     Br  0.50128807  0.42091070  0.60478919     0.00300
Br1752     Br  0.52284691  0.33236170  0.54344437    -0.04100
Br1753     Br  0.45274622  0.28668132  0.59688163     0.00400
Br1754     Br  0.54916468  0.33871143  0.60791474    -0.03400
Br1755     Br  0.49330355  0.37045937  0.62517596    -0.04200
Br1756     Br  0.52594819  0.38266437  0.52078199    -0.00300
C1757       C  0.48849403  0.10587485  0.55142350     0.01100
C1758       C  0.46998330  0.11434424  0.56273029     0.04000
C1759       C  0.47031382  0.13604651  0.57135968    -0.12100
C1760       C  0.48914643  0.14951591  0.56898853     0.23300
C1761       C  0.50728304  0.14145617  0.55701347    -0.12700
C1762       C  0.50703205  0.11978043  0.54834100     0.04700
C1763       C  0.49088839  0.17086939  0.58138723     0.27100
C1764       C  0.48504282  0.19132486  0.57161203    -0.13400
C1765       C  0.48602185  0.21111468  0.58401728     0.05200
C1766       C  0.49239865  0.21059057  0.60641844    -0.09300
C1767       C  0.49827958  0.18998923  0.61609747     0.06000
C1768       C  0.49799181  0.17043982  0.60352111    -0.13700
Br1769     Br  0.53272145  0.16014002  0.55301959    -0.05800
Br1770     Br  0.44477798  0.09569392  0.56817698    -0.00100
Br1771     Br  0.47755671  0.23880370  0.57068260     0.00300
Br1772     Br  0.50688324  0.14267657  0.61677357    -0.04100
Br1773     Br  0.53218542  0.10940145  0.53196896     0.00400
Br1774     Br  0.44520703  0.14724768  0.58721705    -0.03400
Br1775     Br  0.47489979  0.19199323  0.54147812    -0.04200
Br1776     Br  0.50619214  0.18801780  0.64692827    -0.00300
C1777       C  0.45474387  0.24722734  0.67069428     0.01100
C1778       C  0.44904701  0.26642117  0.68296355     0.04000
C1779       C  0.42777449  0.26855270  0.69201302    -0.12100
C1780       C  0.41231689  0.25147125  0.68935616     0.23300
C1781       C  0.41920558  0.23104331  0.68082380    -0.12700
C1782       C  0.44087319  0.22846512  0.67315455     0.04700
C1783       C  0.38897168  0.25463540  0.69587618     0.27100
C1784       C  0.38144224  0.24660360  0.71634908    -0.13400
C1785       C  0.35884850  0.24738485  0.72136487     0.05200
C1786       C  0.34377248  0.25652323  0.70608848    -0.09300
C1787       C  0.35141242  0.26553769  0.68609764     0.06000
C1788       C  0.37399124  0.26451861  0.68094527    -0.13700
Br1789     Br  0.39874356  0.20666828  0.67914244    -0.05800
Br1790     Br  0.47035443  0.28924516  0.68913614    -0.00100
Br1791     Br  0.34845921  0.23566105  0.74907654     0.00300
Br1792     Br  0.38445355  0.27625091  0.65326497    -0.04100
Br1793     Br  0.45241051  0.19875639  0.67121228     0.00400
Br1794     Br  0.41946890  0.29491437  0.70778670    -0.03400
Br1795     Br  0.40213872  0.23439336  0.73736218    -0.04200
Br1796     Br  0.33084608  0.27897065  0.66574882    -0.00300
C1797       C  0.25457143  0.84868120  0.95013941     0.01100
C1798       C  0.26278049  0.82667909  0.94819014     0.04000
C1799       C  0.26117190  0.81526482  0.92798557    -0.12100
C1800       C  0.25401820  0.82631476  0.90883635     0.23300
C1801       C  0.24923143  0.84900125  0.90972999    -0.12700
C1802       C  0.25000903  0.86030044  0.92998887     0.04700
C1803       C  0.25303054  0.81468178  0.88726559     0.27100
C1804       C  0.27144569  0.81477106  0.87320052    -0.13400
C1805       C  0.26976476  0.80612221  0.85171057     0.05200
C1806       C  0.24955446  0.79716896  0.84415087    -0.09300
C1807       C  0.23144880  0.79611593  0.85878989     0.06000
C1808       C  0.23319151  0.80497858  0.88017933    -0.13700
Br1809     Br  0.24169626  0.86457171  0.88276128    -0.05800
Br1810     Br  0.28180064  0.81374821  0.97018394    -0.00100
Br1811     Br  0.29497844  0.80801712  0.83243797     0.00300
Br1812     Br  0.20829586  0.80427082  0.89987043    -0.04100
Br1813     Br  0.24677965  0.89213968  0.92874844     0.00400
Br1814     Br  0.26939083  0.78444882  0.92619313    -0.03400
Br1815     Br  0.29880932  0.82751378  0.88330934    -0.04200
Br1816     Br  0.20437645  0.78176095  0.85012207    -0.00300
C1817       C  0.39647566  0.94864205  0.00406175     0.01100
C1818       C  0.38256409  0.95338329  0.02230229     0.04000
C1819       C  0.36045207  0.94604534  0.02255027    -0.12100
C1820       C  0.35264920  0.93147605  0.00623277     0.23300
C1821       C  0.36701197  0.92491187  0.98927904    -0.12700
C1822       C  0.38812596  0.93449538  0.98735886     0.04700
C1823       C  0.32922611  0.92356311  0.00623535     0.27100
C1824       C  0.32179410  0.90807719  0.02202095    -0.13400
C1825       C  0.30006053  0.89977632  0.02095488     0.05200
C1826       C  0.28648098  0.90451740  0.00252177    -0.09300
C1827       C  0.29353798  0.92105576  0.98750098     0.06000
C1828       C  0.31443579  0.93101619  0.98980164    -0.13700
Br1829     Br  0.35763810  0.90251535  0.96860918    -0.05800
Br1830     Br  0.39357736  0.96846548  0.04810657    -0.00100
Br1831     Br  0.28914787  0.88273201  0.04530986     0.00300
Br1832     Br  0.32324875  0.95437147  0.96984563    -0.04100
Br1833     Br  0.40412709  0.92940791  0.96052805     0.00400
Br1834     Br  0.34054089  0.95658416  0.04494212    -0.03400
Br1835     Br  0.34193377  0.89674607  0.04407813    -0.04200
Br1836     Br  0.27469429  0.93018610  0.96351303    -0.00300
C1837       C  0.09802107  0.94642979  0.00262745     0.01100
C1838       C  0.10818717  0.94137668  0.98211484     0.04000
C1839       C  0.12997850  0.93324284  0.98150727    -0.12100
C1840       C  0.14155234  0.92875272  0.00116700     0.23300
C1841       C  0.13162798  0.93341192  0.02155181    -0.12700
C1842       C  0.11034682  0.94287817  0.02234677     0.04700
C1843       C  0.16369912  0.91797798  0.00025546     0.27100
C1844       C  0.16518511  0.89496903  0.99716750    -0.13400
C1845       C  0.18588323  0.88473930  0.99469965     0.05200
C1846       C  0.20558019  0.89742452  0.99595596    -0.09300
C1847       C  0.20400132  0.92037959  0.99991759     0.06000
C1848       C  0.18314527  0.93064176  0.00172810    -0.13700
Br1849     Br  0.14721355  0.92616663  0.04846117    -0.05800
Br1850     Br  0.09244698  0.94384586  0.95439217    -0.00100
Br1851     Br  0.18682005  0.85291506  0.99108724     0.00300
Br1852     Br  0.18101214  0.96222724  0.00554026    -0.04100
Br1853     Br  0.09915886  0.95189259  0.05071786     0.00400
Br1854     Br  0.14416778  0.92775436  0.95357621    -0.03400
Br1855     Br  0.13858024  0.87745113  0.99640961    -0.04200
Br1856     Br  0.23023818  0.93807844  0.00198709    -0.00300
C1857       C  0.24644628  0.84803915  0.03602032     0.01100
C1858       C  0.22926824  0.85304075  0.05107904     0.04000
C1859       C  0.22896685  0.84352267  0.07238119    -0.12100
C1860       C  0.24629382  0.82983001  0.07958524     0.23300
C1861       C  0.26344701  0.82469747  0.06493845    -0.12700
C1862       C  0.26348175  0.83350635  0.04328299     0.04700
C1863       C  0.24712178  0.82230476  0.10311635     0.27100
C1864       C  0.25438136  0.83699563  0.11959760    -0.13400
C1865       C  0.25379523  0.83071099  0.14203805     0.05200
C1866       C  0.24662302  0.80926844  0.14823814    -0.09300
C1867       C  0.23994966  0.79434520  0.13154647     0.06000
C1868       C  0.23986671  0.80099091  0.10917220    -0.13700
Br1869     Br  0.28744947  0.80624773  0.07509460    -0.05800
Br1870     Br  0.20588986  0.87313956  0.04376163    -0.00100
Br1871     Br  0.26181979  0.85215153  0.16416758     0.00300
Br1872     Br  0.22977211  0.78093191  0.08665275    -0.04100
Br1873     Br  0.28869691  0.82761556  0.02499260     0.00400
Br1874     Br  0.20475952  0.84931869  0.09220324    -0.03400
Br1875     Br  0.26522498  0.86586782  0.11121016    -0.04200
Br1876     Br  0.23220475  0.76421834  0.13891533    -0.00300
C1877       C  0.30453333  0.85728852  0.24231511     0.01100
C1878       C  0.31836736  0.86415952  0.22492704     0.04000
C1879       C  0.32550278  0.88630616  0.22357461    -0.12100
C1880       C  0.31961091  0.90161956  0.24004237     0.23300
C1881       C  0.30509465  0.89502491  0.25694677    -0.12700
C1882       C  0.29726052  0.87304140  0.25783086     0.04700
C1883       C  0.33098319  0.92350978  0.24083699     0.27100
C1884       C  0.35334667  0.92414667  0.24706904    -0.13400
C1885       C  0.36559531  0.94368843  0.24442298     0.05200
C1886       C  0.35504460  0.96357257  0.23788007    -0.09300
C1887       C  0.33223331  0.96337192  0.23341717     0.06000
C1888       C  0.32039158  0.94323850  0.23405176    -0.13700
Br1889     Br  0.29659898  0.91588727  0.27933835    -0.05800
Br1890     Br  0.32890660  0.84294750  0.20374439    -0.00100
Br1891     Br  0.39696480  0.94279916  0.24986708     0.00300
Br1892     Br  0.29005202  0.94246949  0.22459460    -0.04100
Br1893     Br  0.27590434  0.86472494  0.27983933     0.00400
Br1894     Br  0.34405955  0.89565342  0.19946412    -0.03400
Br1895     Br  0.36726641  0.89796631  0.25916800    -0.04200
Br1896     Br  0.31740894  0.99049715  0.22575169    -0.00300
C1897       C  0.16194992  0.54212350  0.25498703     0.01100
C1898       C  0.16828026  0.55404355  0.23578334     0.04000
C1899       C  0.17549294  0.57612907  0.23731301    -0.12100
C1900       C  0.17833293  0.58599515  0.25806253     0.23300
C1901       C  0.17628026  0.57287121  0.27718467    -0.12700
C1902       C  0.16930841  0.55065091  0.27554941     0.04700
C1903       C  0.18522648  0.60961780  0.25940251     0.27100
C1904       C  0.20777699  0.61512555  0.25982744    -0.13400
C1905       C  0.21437499  0.63746162  0.25901400     0.05200
C1906       C  0.19844937  0.65447184  0.25759722    -0.09300
C1907       C  0.17586836  0.64896772  0.25751226     0.06000
C1908       C  0.16928826  0.62660470  0.25854814    -0.13700
Br1909     Br  0.18290941  0.58544514  0.30560098    -0.05800
Br1910     Br  0.17060908  0.53963177  0.20770821    -0.00100
Br1911     Br  0.24534896  0.64463665  0.25857850     0.00300
Br1912     Br  0.13842470  0.61907606  0.25865243    -0.04100
Br1913     Br  0.17459861  0.53112739  0.30036820     0.00400
Br1914     Br  0.18142106  0.59310093  0.21091207    -0.03400
Br1915     Br  0.22960997  0.59190762  0.26086362    -0.04200
Br1916     Br  0.15394544  0.67209597  0.25650297    -0.00300
C1917       C  0.04290773  0.74485851  0.15151308     0.01100
C1918       C  0.04493520  0.74195147  0.17452871     0.04000
C1919       C  0.06591027  0.74246544  0.18468953    -0.12100
C1920       C  0.08494119  0.74589934  0.17188099     0.23300
C1921       C  0.08297345  0.74896761  0.14896931    -0.12700
C1922       C  0.06212834  0.74852911  0.13882233     0.04700
C1923       C  0.10721994  0.74642748  0.18216687     0.27100
C1924       C  0.11641331  0.76671962  0.18874962    -0.13400
C1925       C  0.13841847  0.76769469  0.19617779     0.05200
C1926       C  0.15171895  0.74837278  0.19633780    -0.09300
C1927       C  0.14224495  0.72795426  0.18989000     0.06000
C1928       C  0.12000273  0.72701027  0.18321383    -0.13700
Br1929     Br  0.10911057  0.75386645  0.13148860    -0.05800
Br1930     Br  0.01912216  0.73662043  0.19206235    -0.00100
Br1931     Br  0.14964406  0.79556148  0.20693482     0.00300
Br1932     Br  0.10698515  0.69916587  0.17477743    -0.04100
Br1933     Br  0.06026275  0.75471679  0.10766490     0.00400
Br1934     Br  0.06879701  0.73817990  0.21608390    -0.03400
Br1935     Br  0.09879003  0.79330013  0.18696769    -0.04200
Br1936     Br  0.15980397  0.70130112  0.18843567    -0.00300
C1937       C  0.98099085  0.60191033  0.05106487     0.01100
C1938       C  0.97935564  0.62016790  0.03622734     0.04000
C1939       C  0.97923292  0.64197919  0.04431062    -0.12100
C1940       C  0.98145284  0.64589111  0.06703665     0.23300
C1941       C  0.98260365  0.62798417  0.08188331    -0.12700
C1942       C  0.98206235  0.60608510  0.07406082     0.04700
C1943       C  0.98428566  0.66881063  0.07526661     0.27100
C1944       C  0.00525901  0.67858834  0.07498317    -0.13400
C1945       C  0.00845506  0.69960653  0.08431931     0.05200
C1946       C  0.99099042  0.71036831  0.09552210    -0.09300
C1947       C  0.96929607  0.70252909  0.09120577     0.06000
C1948       C  0.96610888  0.68121937  0.08243332    -0.13700
Br1949     Br  0.98529077  0.63371881  0.11308357    -0.05800
Br1950     Br  0.97881968  0.61613616  0.00458992    -0.00100
Br1951     Br  0.03575733  0.71444301  0.07835557     0.00300
Br1952     Br  0.93688961  0.66889950  0.08027484    -0.04100
Br1953     Br  0.98190709  0.58219401  0.09538648     0.00400
Br1954     Br  0.97661271  0.66682895  0.02427092    -0.03400
Br1955     Br  0.02969272  0.66290147  0.06195324    -0.04200
Br1956     Br  0.94412751  0.72215469  0.09218207    -0.00300
C1957       C  0.00212616  0.79280838  0.10867886     0.01100
C1958       C  0.01952028  0.80728447  0.11482102     0.04000
C1959       C  0.02094470  0.82862622  0.10544267    -0.12100
C1960       C  0.00410484  0.83657669  0.09154177     0.23300
C1961       C  0.98590520  0.82303082  0.08674966    -0.12700
C1962       C  0.98493840  0.80124692  0.09506386     0.04700
C1963       C  0.00497731  0.85959891  0.08276782     0.27100
C1964       C  0.99880810  0.87747338  0.09624375    -0.13400
C1965       C  0.99899371  0.89921776  0.08777489     0.05200
C1966       C  0.00453362  0.90316850  0.06548724    -0.09300
C1967       C  0.01108567  0.88522229  0.05212443     0.06000
C1968       C  0.01158755  0.86357608  0.06086688    -0.13700
Br1969     Br  0.96200625  0.83470418  0.06906615    -0.05800
Br1970     Br  0.04100122  0.79953740  0.13694600    -0.00100
Br1971     Br  0.99286524  0.92362433  0.10718729     0.00300
Br1972     Br  0.02109292  0.83916354  0.04283096    -0.04100
Br1973     Br  0.95851380  0.78420086  0.08975871     0.00400
Br1974     Br  0.04619436  0.84718598  0.11135517    -0.03400
Br1975     Br  0.98973225  0.87201306  0.12626963    -0.04200
Br1976     Br  0.01817175  0.88984308  0.02142362    -0.00300
C1977       C  0.22647967  0.68953490  0.64338941     0.01100
C1978       C  0.22522580  0.70520265  0.62606410     0.04000
C1979       C  0.22680709  0.69825257  0.60396173    -0.12100
C1980       C  0.22962135  0.67565320  0.59907292     0.23300
C1981       C  0.22979895  0.65991487  0.61633364    -0.12700
C1982       C  0.22810307  0.66682776  0.63840941     0.04700
C1983       C  0.23328980  0.66840241  0.57592123     0.27100
C1984       C  0.21565136  0.66055052  0.56308336    -0.13400
C1985       C  0.21955848  0.65119185  0.54215023     0.05200
C1986       C  0.24139743  0.64938240  0.53396998    -0.09300
C1987       C  0.25857422  0.65993942  0.54592557     0.06000
C1988       C  0.25462738  0.66876321  0.56700284    -0.13700
Br1989     Br  0.23310060  0.62890037  0.60969575    -0.05800
Br1990     Br  0.22269182  0.73632557  0.63255819    -0.00100
Br1991     Br  0.19451232  0.64078545  0.52575912     0.00300
Br1992     Br  0.27873782  0.68018009  0.58440801    -0.04100
Br1993     Br  0.22754403  0.64516457  0.66190961     0.00400
Br1994     Br  0.22591018  0.71966971  0.58028312    -0.03400
Br1995     Br  0.18619064  0.66172800  0.57497355    -0.04200
Br1996     Br  0.28778178  0.66260774  0.53358873    -0.00300
C1997       C  0.28420515  0.58216038  0.50800968     0.01100
C1998       C  0.29476771  0.57021784  0.49097688     0.04000
C1999       C  0.31570626  0.56087293  0.49461818    -0.12100
C2000       C  0.32560403  0.56237294  0.51553515     0.23300
C2001       C  0.31308034  0.56969362  0.53349921    -0.12700
C2002       C  0.29176072  0.57816704  0.52990515     0.04700
C2003       C  0.34930420  0.55713060  0.51822939     0.27100
C2004       C  0.35627822  0.53550354  0.52343314    -0.13400
C2005       C  0.37892486  0.53038646  0.52386556     0.05200
C2006       C  0.39465195  0.54697193  0.51901749    -0.09300
C2007       C  0.38754191  0.56882147  0.51466300     0.06000
C2008       C  0.36494045  0.57384336  0.51425649    -0.13700
Br2009     Br  0.32536371  0.56853670  0.56285114    -0.05800
Br2010     Br  0.28010280  0.56443973  0.46347503    -0.00100
Br2011     Br  0.38804983  0.50024521  0.52947758     0.00300
Br2012     Br  0.35518639  0.60359360  0.50765089    -0.04100
Br2013     Br  0.27183132  0.57906165  0.55468076     0.00400
Br2014     Br  0.33126680  0.54662536  0.47088882    -0.03400
Br2015     Br  0.33464592  0.51280876  0.52903456    -0.04200
Br2016     Br  0.40868147  0.59212206  0.50959118    -0.00300
C2017       C  0.20364417  0.59847394  0.49291425     0.01100
C2018       C  0.19420270  0.58554376  0.51003568     0.04000
C2019       C  0.17270961  0.57709003  0.50780076    -0.12100
C2020       C  0.16091991  0.58021315  0.48797051     0.23300
C2021       C  0.17003176  0.59339474  0.47111078    -0.12700
C2022       C  0.19055194  0.60378789  0.47423561     0.04700
C2023       C  0.13878351  0.56998020  0.48508536     0.27100
C2024       C  0.13686139  0.54690915  0.48246237    -0.13400
C2025       C  0.11592207  0.53694780  0.48147619     0.05200
C2026       C  0.09662816  0.55019941  0.48134759    -0.09300
C2027       C  0.09873669  0.57349442  0.48256868     0.06000
C2028       C  0.11964119  0.58321469  0.48535820    -0.13700
Br2029     Br  0.15474478  0.59645512  0.44324279    -0.05800
Br2030     Br  0.20972223  0.58089237  0.53760458    -0.00100
Br2031     Br  0.11416682  0.50500149  0.48201385     0.00300
Br2032     Br  0.12202676  0.61469956  0.49020192    -0.04100
Br2033     Br  0.19910258  0.62627699  0.45342538     0.00400
Br2034     Br  0.15922386  0.56132430  0.53203566    -0.03400
Br2035     Br  0.16309157  0.52890333  0.48027607    -0.04200
Br2036     Br  0.07331418  0.59248985  0.47912967    -0.00300
C2037       C  0.25531133  0.64099729  0.45498186     0.01100
C2038       C  0.25203330  0.62945676  0.43495425     0.04000
C2039       C  0.25325907  0.64064283  0.41453768    -0.12100
C2040       C  0.25838452  0.66334114  0.41374782     0.23300
C2041       C  0.26191758  0.67487974  0.43360571    -0.12700
C2042       C  0.26013271  0.66382858  0.45413262     0.04700
C2043       C  0.25901200  0.67519069  0.39204156     0.27100
C2044       C  0.27840962  0.67557495  0.37932215    -0.13400
C2045       C  0.27851842  0.68577463  0.35825983     0.05200
C2046       C  0.25925430  0.69621161  0.34993448    -0.09300
C2047       C  0.24005760  0.69638175  0.36320548     0.06000
C2048       C  0.23985054  0.68550583  0.38383492    -0.13700
Br2049     Br  0.26939536  0.70586169  0.43248606    -0.05800
Br2050     Br  0.24482700  0.59840178  0.43511219    -0.00100
Br2051     Br  0.30477597  0.68400274  0.34050226     0.00300
Br2052     Br  0.21302881  0.68411256  0.40080540    -0.04100
Br2053     Br  0.26479636  0.67995425  0.48099915     0.00400
Br2054     Br  0.24752116  0.62497448  0.38744974    -0.03400
Br2055     Br  0.30468251  0.66155333  0.39073772    -0.04200
Br2056     Br  0.21404807  0.71243464  0.35391818    -0.00300
C2057       C  0.59396425  0.50074894  0.21450658     0.01100
C2058       C  0.59287045  0.47992979  0.20430752     0.04000
C2059       C  0.58516644  0.47828935  0.18249918    -0.12100
C2060       C  0.57685714  0.49718970  0.17159963     0.23300
C2061       C  0.57505963  0.51736015  0.18301709    -0.12700
C2062       C  0.58343018  0.51909637  0.20459508     0.04700
C2063       C  0.57019779  0.49594903  0.14811220     0.27100
C2064       C  0.58532966  0.50185679  0.13157644    -0.13400
C2065       C  0.57903824  0.50115962  0.10924458     0.05200
C2066       C  0.55738990  0.49482068  0.10335858    -0.09300
C2067       C  0.54229094  0.48874471  0.12004100     0.06000
C2068       C  0.54877737  0.48918520  0.14234137    -0.13700
Br2069     Br  0.56165040  0.54266133  0.16881465    -0.05800
Br2070     Br  0.59949626  0.45351333  0.22106292    -0.00100
Br2071     Br  0.60049437  0.50820057  0.08683038     0.00300
Br2072     Br  0.52823761  0.48102698  0.16519061    -0.04100
Br2073     Br  0.58032432  0.54649311  0.22058570     0.00400
Br2074     Br  0.58650452  0.45036461  0.16734562    -0.03400
Br2075     Br  0.61468933  0.51109181  0.13970897    -0.04200
Br2076     Br  0.51219528  0.48128524  0.11275414    -0.00300
C2077       C  0.54652987  0.50865884  0.40305352     0.01100
C2078       C  0.53280202  0.51377894  0.38484626     0.04000
C2079       C  0.54149057  0.51374636  0.36327863    -0.12100
C2080       C  0.56370213  0.50793638  0.35979391     0.23300
C2081       C  0.57724170  0.50236070  0.37795362    -0.12700
C2082       C  0.56887684  0.50328747  0.39948356     0.04700
C2083       C  0.57357358  0.50879861  0.33737187     0.27100
C2084       C  0.57116122  0.49101732  0.32269833    -0.13400
C2085       C  0.58299483  0.49071757  0.30266401     0.05200
C2086       C  0.59837760  0.50788523  0.29753498    -0.09300
C2087       C  0.60264988  0.52381770  0.31427941     0.06000
C2088       C  0.58853355  0.52574682  0.33243723    -0.13700
Br2089     Br  0.60742680  0.49331569  0.37331619    -0.05800
Br2090     Br  0.50190768  0.51973675  0.38922134    -0.00100
Br2091     Br  0.57936304  0.46512383  0.28389957     0.00300
Br2092     Br  0.59100947  0.55090426  0.35189523    -0.04100
Br2093     Br  0.58857444  0.49829792  0.42417485     0.00400
Br2094     Br  0.52310802  0.52167218  0.33845250    -0.03400
Br2095     Br  0.55221297  0.46661740  0.33067774    -0.04200
Br2096     Br  0.63118747  0.53719907  0.31841013    -0.00300
C2097       C  0.65505707  0.46873592  0.25031421     0.01100
C2098       C  0.66669733  0.46001116  0.26881178     0.04000
C2099       C  0.67454252  0.43809809  0.26875343    -0.12100
C2100       C  0.67321465  0.42545457  0.24944312     0.23300
C2101       C  0.66577965  0.43542891  0.22979067    -0.12700
C2102       C  0.65706129  0.45712333  0.22994102     0.04700
C2103       C  0.67971201  0.40170514  0.24962733     0.27100
C2104       C  0.70205112  0.39558169  0.24804556    -0.13400
C2105       C  0.70795740  0.37305911  0.24727252     0.05200
C2106       C  0.69156799  0.35652499  0.24807733    -0.09300
C2107       C  0.66929476  0.36266076  0.25030963     0.06000
C2108       C  0.66335579  0.38519248  0.25086326    -0.13700
Br2109     Br  0.66713802  0.41870837  0.20269955    -0.05800
Br2110     Br  0.67406193  0.47859539  0.29362846    -0.00100
Br2111     Br  0.73855701  0.36488393  0.24460742     0.00300
Br2112     Br  0.63277460  0.39358597  0.25331067    -0.04100
Br2113     Br  0.65018490  0.46992409  0.20150906     0.00400
Br2114     Br  0.68614322  0.42498340  0.29547489    -0.03400
Br2115     Br  0.72449758  0.41811776  0.24660187    -0.04200
Br2116     Br  0.64706890  0.34025612  0.25388218    -0.00300
C2117       C  0.75036790  0.34971405  0.45341196     0.01100
C2118       C  0.73193739  0.33835951  0.44457521     0.04000
C2119       C  0.73257361  0.32978355  0.42307024    -0.12100
C2120       C  0.75171998  0.33205849  0.41032084     0.23300
C2121       C  0.77096562  0.34068556  0.41997308    -0.12700
C2122       C  0.77059911  0.34859716  0.44181776     0.04700
C2123       C  0.75162579  0.32495471  0.38690046     0.27100
C2124       C  0.75794429  0.30327821  0.38139331    -0.13400
C2125       C  0.75680863  0.29618040  0.35934991     0.05200
C2126       C  0.74993521  0.31098718  0.34251913    -0.09300
C2127       C  0.74385410  0.33283874  0.34808316     0.06000
C2128       C  0.74449139  0.33969067  0.37025067    -0.13700
Br2129     Br  0.79762573  0.34235658  0.40277213    -0.05800
Br2130     Br  0.70600197  0.33349488  0.46225351    -0.00100
Br2131     Br  0.76314991  0.26561392  0.35269186     0.00300
Br2132     Br  0.73547814  0.36928014  0.37799219    -0.04100
Br2133     Br  0.79829053  0.35591790  0.45547577     0.00400
Br2134     Br  0.70697924  0.31551843  0.41063571    -0.03400
Br2135     Br  0.76780936  0.28324868  0.40428837    -0.04200
Br2136     Br  0.73547770  0.35379965  0.32538257    -0.00300
C2137       C  0.70849246  0.41261339  0.48976366     0.01100
C2138       C  0.69806218  0.42036973  0.50914485     0.04000
C2139       C  0.67639946  0.42860715  0.50802842    -0.12100
C2140       C  0.66593796  0.43129360  0.48744175     0.23300
C2141       C  0.67816146  0.42840446  0.46802113    -0.12700
C2142       C  0.69981821  0.42006895  0.46922003     0.04700
C2143       C  0.64228123  0.43749045  0.48643566     0.27100
C2144       C  0.62613986  0.42076307  0.48568598    -0.13400
C2145       C  0.60367604  0.42628563  0.48730541     0.05200
C2146       C  0.59726888  0.44858611  0.48935714    -0.09300
C2147       C  0.61337374  0.46541424  0.48899403     0.06000
C2148       C  0.63585922  0.45985628  0.48763998    -0.13700
Br2149     Br  0.66503543  0.43558057  0.43986243    -0.05800
Br2150     Br  0.71421519  0.42330361  0.53651817    -0.00100
Br2151     Br  0.58161504  0.40335708  0.48648008     0.00300
Br2152     Br  0.65799592  0.48273168  0.48810603    -0.04100
Br2153     Br  0.71831736  0.42245840  0.44341783     0.00400
Br2154     Br  0.66080021  0.43578005  0.53472241    -0.03400
Br2155     Br  0.63496474  0.39023844  0.48280946    -0.04200
Br2156     Br  0.60475074  0.49602716  0.49159661    -0.00300
C2157       C  0.79031542  0.40174212  0.49648778     0.01100
C2158       C  0.79862021  0.40463395  0.51801255     0.04000
C2159       C  0.82080239  0.41043589  0.52120989    -0.12100
C2160       C  0.83420867  0.41527740  0.50291835     0.23300
C2161       C  0.82527049  0.41447691  0.48144072    -0.12700
C2162       C  0.80314697  0.40827403  0.47827952     0.04700
C2163       C  0.85671212  0.42411796  0.50647902     0.27100
C2164       C  0.85953382  0.44693388  0.50993163    -0.13400
C2165       C  0.88074519  0.45575154  0.51297231     0.05200
C2166       C  0.89942662  0.44165357  0.51280828    -0.09300
C2167       C  0.89641510  0.41860238  0.50971072     0.06000
C2168       C  0.87509794  0.40994166  0.50648989    -0.13700
Br2169     Br  0.84325393  0.42241041  0.45648273    -0.05800
Br2170     Br  0.77896966  0.40364141  0.54297516    -0.00100
Br2171     Br  0.88374719  0.48745713  0.51586469     0.00300
Br2172     Br  0.87084714  0.37861816  0.50212662    -0.04100
Br2173     Br  0.78963103  0.41152217  0.44955285     0.00400
Br2174     Br  0.83280437  0.41217732  0.55064969    -0.03400
Br2175     Br  0.83405932  0.46615338  0.51013362    -0.04200
Br2176     Br  0.92115435  0.39845855  0.51069005    -0.00300
C2177       C  0.34685176  0.53900930  0.74958539     0.01100
C2178       C  0.34046460  0.55238458  0.76773894     0.04000
C2179       C  0.33150532  0.57363908  0.76406076    -0.12100
C2180       C  0.32660382  0.58084644  0.74249767     0.23300
C2181       C  0.32946026  0.56626259  0.72481419    -0.12700
C2182       C  0.33833347  0.54504665  0.72851501     0.04700
C2183       C  0.31622065  0.60283518  0.73869254     0.27100
C2184       C  0.29307224  0.60472458  0.73764733    -0.13400
C2185       C  0.28313563  0.62564863  0.73495887     0.05200
C2186       C  0.29631907  0.64479291  0.73368197    -0.09300
C2187       C  0.31948840  0.64278906  0.73394921     0.06000
C2188       C  0.32941329  0.62184446  0.73633746    -0.13700
Br2189     Br  0.32118609  0.57552021  0.69537994    -0.05800
Br2190     Br  0.33892628  0.54038958  0.79733957    -0.00100
Br2191     Br  0.25146458  0.62818938  0.73433018     0.00300
Br2192     Br  0.36107525  0.61911778  0.73681880    -0.04100
Br2193     Br  0.33441295  0.52354179  0.70559735     0.00400
Br2194     Br  0.32577606  0.59302210  0.78858605    -0.03400
Br2195     Br  0.27503172  0.57862772  0.74075645    -0.04200
Br2196     Br  0.33763124  0.66883275  0.73089045    -0.00300
C2197       C  0.35565573  0.45584241  0.76161271     0.01100
C2198       C  0.36385107  0.43708002  0.75007643     0.04000
C2199       C  0.35265990  0.41666623  0.75128511    -0.12100
C2200       C  0.33326493  0.41465768  0.76369849     0.23300
C2201       C  0.32581684  0.43262575  0.77622694    -0.12700
C2202       C  0.33745762  0.45275904  0.77598227     0.04700
C2203       C  0.32108943  0.39333520  0.76391848     0.27100
C2204       C  0.30684069  0.38799686  0.74633768    -0.13400
C2205       C  0.29667461  0.36708517  0.74560583     0.05200
C2206       C  0.30046257  0.35152428  0.76265841    -0.09300
C2207       C  0.31408897  0.35722276  0.78067433     0.06000
C2208       C  0.32455908  0.37799012  0.78116028    -0.13700
Br2209     Br  0.29926471  0.42964748  0.79340241    -0.05800
Br2210     Br  0.39020339  0.43785523  0.73248673    -0.00100
Br2211     Br  0.27708635  0.36003130  0.72148947     0.00300
Br2212     Br  0.34438166  0.38521071  0.80501187    -0.04100
Br2213     Br  0.32958788  0.47504401  0.79733080     0.00400
Br2214     Br  0.36361526  0.39108587  0.73566137    -0.03400
Br2215     Br  0.30153027  0.40936948  0.72314974    -0.04200
Br2216     Br  0.31950767  0.33617699  0.80414581    -0.00300
C2217       C  0.40918890  0.50256121  0.79331777     0.01100
C2218       C  0.40987077  0.48456830  0.80840489     0.04000
C2219       C  0.42192901  0.48633630  0.82822453    -0.12100
C2220       C  0.43239213  0.50632672  0.83372736     0.23300
C2221       C  0.43326426  0.52360480  0.81815160    -0.12700
C2222       C  0.42235267  0.52146247  0.79771732     0.04700
C2223       C  0.44028725  0.50972092  0.85670964     0.27100
C2224       C  0.42491583  0.51516981  0.87321687    -0.13400
C2225       C  0.43142353  0.51558345  0.89550019     0.05200
C2226       C  0.45349561  0.51135905  0.90130774    -0.09300
C2227       C  0.46913770  0.50702900  0.88473415     0.06000
C2228       C  0.46249392  0.50595293  0.86246842    -0.13700
Br2229     Br  0.44843743  0.55065942  0.82542271    -0.05800
Br2230     Br  0.39292408  0.45808491  0.80370599    -0.00100
Br2231     Br  0.41007570  0.52157527  0.91818036     0.00300
Br2232     Br  0.48351721  0.49851431  0.83993761    -0.04100
Br2233     Br  0.42581830  0.54455564  0.77582286     0.00400
Br2234     Br  0.42331719  0.46175530  0.84870382    -0.03400
Br2235     Br  0.39479491  0.52171287  0.86520665    -0.04200
Br2236     Br  0.49944544  0.50148294  0.89270969    -0.00300
C2237       C  0.45027047  0.48663293  0.60862142     0.01100
C2238       C  0.44454067  0.46580738  0.61783313     0.04000
C2239       C  0.43877837  0.46410381  0.64026577    -0.12100
C2240       C  0.43696613  0.48330004  0.65319933     0.23300
C2241       C  0.44295930  0.50397781  0.64422833    -0.12700
C2242       C  0.45033333  0.50553935  0.62231306     0.04700
C2243       C  0.42617452  0.48238069  0.67514797     0.27100
C2244       C  0.40312319  0.48007931  0.67621709    -0.13400
C2245       C  0.39230264  0.48239796  0.69644915     0.05200
C2246       C  0.40412906  0.48902897  0.71540603    -0.09300
C2247       C  0.42731299  0.48974919  0.71473470     0.06000
C2248       C  0.43836665  0.48581285  0.69470102    -0.13700
Br2249     Br  0.43999673  0.53047588  0.66169281    -0.05800
Br2250     Br  0.44229545  0.43974482  0.59963502    -0.00100
Br2251     Br  0.36141680  0.47520021  0.69820492     0.00300
Br2252     Br  0.47009777  0.48594719  0.69368828    -0.04100
Br2253     Br  0.46123119  0.53365463  0.61165550     0.00400
Br2254     Br  0.43254170  0.43555725  0.65327467    -0.03400
Br2255     Br  0.38601219  0.47528461  0.64971240    -0.04200
Br2256     Br  0.44383252  0.49714756  0.74081698    -0.00300
C2257       C  0.74605039  0.15076249  0.03511550     0.01100
C2258       C  0.76331912  0.16532850  0.04135607     0.04000
C2259       C  0.76316397  0.17566467  0.06214147    -0.12100
C2260       C  0.74596296  0.17151296  0.07705143     0.23300
C2261       C  0.72913032  0.15660027  0.07130609    -0.12700
C2262       C  0.72931984  0.14596543  0.05064441     0.04700
C2263       C  0.74627155  0.18167337  0.09939518     0.27100
C2264       C  0.75587248  0.17007461  0.11716216    -0.13400
C2265       C  0.75526519  0.17891557  0.13859822     0.05200
C2266       C  0.74551214  0.19990054  0.14242238    -0.09300
C2267       C  0.73663450  0.21187235  0.12429991     0.06000
C2268       C  0.73672735  0.20260126  0.10296990    -0.13700
Br2269     Br  0.70568378  0.15093414  0.09201487    -0.05800
Br2270     Br  0.78855327  0.16976332  0.02255068    -0.00100
Br2271     Br  0.76707675  0.16135108  0.16259643     0.00300
Br2272     Br  0.72384835  0.21850393  0.07843866    -0.04100
Br2273     Br  0.70650019  0.12484710  0.04435281     0.00400
Br2274     Br  0.78675945  0.19533683  0.07054876    -0.03400
Br2275     Br  0.76990503  0.14187991  0.11190982    -0.04200
Br2276     Br  0.72567610  0.24161347  0.12810396    -0.00300
C2277       C  0.60508782  0.04192160  0.97507363     0.01100
C2278       C  0.61287272  0.04501037  0.99687473     0.04000
C2279       C  0.63408222  0.05363783  0.00066430    -0.12100
C2280       C  0.64771816  0.05923394  0.98278119     0.23300
C2281       C  0.64060918  0.05485002  0.96107767    -0.12700
C2282       C  0.61932737  0.04629013  0.95718307     0.04700
C2283       C  0.66789502  0.07268317  0.98663949     0.27100
C2284       C  0.66588907  0.09581705  0.98791547    -0.13400
C2285       C  0.68468915  0.10905189  0.99077536     0.05200
C2286       C  0.70592435  0.09938292  0.99172703    -0.09300
C2287       C  0.70770954  0.07602878  0.99210465     0.06000
C2288       C  0.68873612  0.06274251  0.98938342    -0.13700
Br2289     Br  0.65986890  0.06149049  0.93670014    -0.05800
Br2290     Br  0.59474981  0.03709988  0.02179840    -0.00100
Br2291     Br  0.68083456  0.14042126  0.99471386     0.00300
Br2292     Br  0.69115124  0.03092995  0.98888170    -0.04100
Br2293     Br  0.60924902  0.04225520  0.92724811     0.00400
Br2294     Br  0.64436954  0.05860502  0.03038508    -0.03400
Br2295     Br  0.63715035  0.10941293  0.98526315    -0.04200
Br2296     Br  0.73583858  0.06191641  0.99616212    -0.00300
C2297       C  0.78360476  0.09516357  0.99781845     0.01100
C2298       C  0.79118981  0.08143796  0.98047975     0.04000
C2299       C  0.81154430  0.07038708  0.98233629    -0.12100
C2300       C  0.82434701  0.07256741  0.00156309     0.23300
C2301       C  0.81573665  0.08393461  0.01979578    -0.12700
C2302       C  0.79538417  0.09513121  0.01804140     0.04700
C2303       C  0.84761290  0.06475968  0.00177247     0.27100
C2304       C  0.85284382  0.04281094  0.00766332    -0.13400
C2305       C  0.87487366  0.03541703  0.00689463     0.05200
C2306       C  0.89191485  0.05013993  0.00069162    -0.09300
C2307       C  0.88659398  0.07225299  0.99510731     0.06000
C2308       C  0.86451932  0.07944074  0.99549164    -0.13700
Br2309     Br  0.83265826  0.08503907  0.04679146    -0.05800
Br2310     Br  0.77398707  0.07774825  0.95381857    -0.00100
Br2311     Br  0.88135577  0.00473430  0.01318588     0.00300
Br2312     Br  0.85727652  0.10956816  0.98747838    -0.04100
Br2313     Br  0.78495683  0.11122824  0.04320713     0.00400
Br2314     Br  0.82262584  0.05313642  0.95807311    -0.03400
Br2315     Br  0.82967863  0.02299161  0.01678358    -0.04200
Br2316     Br  0.90952913  0.09321297  0.98799475    -0.00300
C2317       C  0.15656816  0.95940073  0.75211944     0.01100
C2318       C  0.16326406  0.95021297  0.73164500     0.04000
C2319       C  0.17141349  0.92834398  0.73080787    -0.12100
C2320       C  0.17385526  0.91591538  0.75036287     0.23300
C2321       C  0.17127949  0.92646503  0.77078297    -0.12700
C2322       C  0.16419189  0.94859102  0.77153840     0.04700
C2323       C  0.17930949  0.89192077  0.74961661     0.27100
C2324       C  0.16252863  0.87639359  0.74540307    -0.13400
C2325       C  0.16723077  0.85355908  0.74584214     0.05200
C2326       C  0.18873658  0.84606006  0.75092207    -0.09300
C2327       C  0.20557271  0.86171517  0.75502344     0.06000
C2328       C  0.20090662  0.88454589  0.75405397    -0.13700
Br2329     Br  0.17686246  0.91042586  0.79787299    -0.05800
Br2330     Br  0.16357376  0.96783167  0.70496982    -0.00100
Br2331     Br  0.14384036  0.83265346  0.74030430     0.00300
Br2332     Br  0.22416491  0.90588340  0.75835538    -0.04100
Br2333     Br  0.16991594  0.96482915  0.79815397     0.00400
Br2334     Br  0.17889569  0.91510528  0.70293871    -0.03400
Br2335     Br  0.13294661  0.88655752  0.73928004    -0.04200
Br2336     Br  0.23540937  0.85216128  0.76093141    -0.00300
C2337       C  0.18614301  0.15325238  0.74750302     0.01100
C2338       C  0.17107987  0.14710677  0.73084040     0.04000
C2339       C  0.16271994  0.12535683  0.73019189    -0.12100
C2340       C  0.16982936  0.10950123  0.74582360     0.23300
C2341       C  0.18543373  0.11544497  0.76200640    -0.12700
C2342       C  0.19337841  0.13728929  0.76301278     0.04700
C2343       C  0.16003195  0.08692530  0.74620220     0.27100
C2344       C  0.14342828  0.08188755  0.76150116    -0.13400
C2345       C  0.13513810  0.06016658  0.76329785     0.05200
C2346       C  0.14324707  0.04311143  0.74938652    -0.09300
C2347       C  0.15860933  0.04897229  0.73270524     0.06000
C2348       C  0.16741529  0.07052677  0.73163664    -0.13700
Br2349     Br  0.19571672  0.09355527  0.78296555    -0.05800
Br2350     Br  0.16096131  0.16875707  0.70960321    -0.00100
Br2351     Br  0.11288372  0.05504171  0.78525091     0.00300
Br2352     Br  0.18983479  0.07771383  0.71027305    -0.04100
Br2353     Br  0.21464717  0.14512998  0.78540455     0.00400
Br2354     Br  0.14088897  0.11740661  0.70843294    -0.03400
Br2355     Br  0.13219710  0.10516020  0.78018323    -0.04200
Br2356     Br  0.16596755  0.02858104  0.70943424    -0.00300
C2357       C  0.09170603  0.99783050  0.71572031     0.01100
C2358       C  0.07902320  0.97918551  0.70943080     0.04000
C2359       C  0.06946103  0.97804730  0.68821072    -0.12100
C2360       C  0.07205338  0.99566828  0.67316897     0.23300
C2361       C  0.08271161  0.01511841  0.68008102    -0.12700
C2362       C  0.09208203  0.01642693  0.70138430     0.04700
C2363       C  0.06351943  0.99390115  0.65009968     0.27100
C2364       C  0.07713424  0.98565229  0.63319899    -0.13400
C2365       C  0.06933475  0.98470221  0.61123852     0.05200
C2366       C  0.04769722  0.99162757  0.60609156    -0.09300
C2367       C  0.03411952  0.99991780  0.62306958     0.06000
C2368       C  0.04204531  0.00113326  0.64492180    -0.13700
Br2369     Br  0.08531336  0.03964655  0.65970775    -0.05800
Br2370     Br  0.07445255  0.95514692  0.73002756    -0.00100
Br2371     Br  0.08806506  0.97325858  0.58835337     0.00300
Br2372     Br  0.02363843  0.01298922  0.66789380    -0.04100
Br2373     Br  0.10537185  0.04386941  0.71008301     0.00400
Br2374     Br  0.05353235  0.95196843  0.67927781    -0.03400
Br2375     Br  0.10647937  0.97555600  0.64030902    -0.04200
Br2376     Br  0.00488875  0.01066148  0.61629704    -0.00300
C2377       C  0.05492300  0.00361903  0.90509417     0.01100
C2378       C  0.05808649  0.98376683  0.89309323     0.04000
C2379       C  0.06704319  0.98441236  0.87167160    -0.12100
C2380       C  0.07200081  0.00480567  0.86152670     0.23300
C2381       C  0.06855124  0.02461264  0.87313591    -0.12700
C2382       C  0.06046577  0.02408626  0.89492217     0.04700
C2383       C  0.08168905  0.00527544  0.83895356     0.27100
C2384       C  0.10460690  0.00746584  0.83640657    -0.13400
C2385       C  0.11398864  0.00685701  0.81525273     0.05200
C2386       C  0.10071521  0.00262576  0.79645750    -0.09300
C2387       C  0.07766527  0.00155428  0.79891083     0.06000
C2388       C  0.06816516  0.00312506  0.82009210    -0.13700
Br2389     Br  0.07520296  0.05253016  0.85903186    -0.05800
Br2390     Br  0.04906246  0.95547412  0.90500601    -0.00100
Br2391     Br  0.14488232  0.01362558  0.81211211     0.00300
Br2392     Br  0.03664018  0.00191177  0.82350177    -0.04100
Br2393     Br  0.05839230  0.05163704  0.91086146     0.00400
Br2394     Br  0.07293453  0.95723791  0.85612377    -0.03400
Br2395     Br  0.12326795  0.01060668  0.86208399    -0.04200
Br2396     Br  0.05916961  0.99738223  0.77343263    -0.00300
C2397       C  0.45821138  0.75118810  0.35568011     0.01100
C2398       C  0.44444800  0.76992573  0.35897615     0.04000
C2399       C  0.42479121  0.77250837  0.34684994    -0.12100
C2400       C  0.41700923  0.75531346  0.33350026     0.23300
C2401       C  0.42953219  0.73584317  0.33139805    -0.12700
C2402       C  0.45018790  0.73390871  0.34206887     0.04700
C2403       C  0.39435001  0.75686981  0.32416204     0.27100
C2404       C  0.37624716  0.75164362  0.33766619    -0.13400
C2405       C  0.35463224  0.75442033  0.32970434     0.05200
C2406       C  0.35088128  0.76205591  0.30791605    -0.09300
C2407       C  0.36907618  0.76760087  0.29447329     0.06000
C2408       C  0.39074563  0.76506892  0.30265167    -0.13700
Br2409     Br  0.41778057  0.71154863  0.31453114    -0.05800
Br2410     Br  0.44991408  0.79130676  0.38154696    -0.00100
Br2411     Br  0.33018067  0.74855784  0.34921566     0.00300
Br2412     Br  0.41563501  0.77270413  0.28448470    -0.04100
Br2413     Br  0.46575635  0.70614497  0.34039236     0.00400
Br2414     Br  0.40787170  0.79960428  0.34877159    -0.03400
Br2415     Br  0.38120658  0.74068652  0.36726467    -0.04200
Br2416     Br  0.36459125  0.77759154  0.26449953    -0.00300
C2417       C  0.49019108  0.71164324  0.41390532     0.01100
C2418       C  0.46915778  0.70143787  0.41266756     0.04000
C2419       C  0.46555551  0.68066299  0.42290527    -0.12100
C2420       C  0.48260991  0.67017888  0.43480705     0.23300
C2421       C  0.50229218  0.68176398  0.43880009    -0.12700
C2422       C  0.50598450  0.70245603  0.42864269     0.04700
C2423       C  0.48096644  0.64624669  0.44098414     0.27100
C2424       C  0.47457244  0.63963165  0.46232799    -0.13400
C2425       C  0.47529460  0.61704312  0.46851229     0.05200
C2426       C  0.48171304  0.60071626  0.45308219    -0.09300
C2427       C  0.48714005  0.60742784  0.43137236     0.06000
C2428       C  0.48707744  0.63005083  0.42551348    -0.13700
Br2429     Br  0.52474082  0.66855005  0.45726496    -0.05800
Br2430     Br  0.44509763  0.71484252  0.39676490    -0.00100
Br2431     Br  0.46930419  0.60900864  0.49875022     0.00300
Br2432     Br  0.49598591  0.63910025  0.39627859    -0.04100
Br2433     Br  0.53289775  0.71810455  0.43514896     0.00400
Br2434     Br  0.43761325  0.66576200  0.41984420    -0.03400
Br2435     Br  0.46532116  0.66174777  0.48316751    -0.04200
Br2436     Br  0.49410456  0.58572104  0.40919386    -0.00300
C2437       C  0.49921512  0.79146774  0.40361244     0.01100
C2438       C  0.49838293  0.81080045  0.39027439     0.04000
C2439       C  0.49585121  0.83167141  0.40004205    -0.12100
C2440       C  0.49674727  0.83378970  0.42314153     0.23300
C2441       C  0.49836029  0.81465812  0.43648988    -0.12700
C2442       C  0.49860274  0.79350911  0.42674751     0.04700
C2443       C  0.49713694  0.85630456  0.43298628     0.27100
C2444       C  0.51606629  0.86960158  0.43059981    -0.13400
C2445       C  0.51570947  0.89190457  0.43715010     0.05200
C2446       C  0.49674415  0.90082387  0.44721777    -0.09300
C2447       C  0.47823821  0.88706218  0.45081426     0.06000
C2448       C  0.47825412  0.86504899  0.44322576    -0.13700
Br2449     Br  0.50145955  0.81752209  0.46801050    -0.05800
Br2450     Br  0.49989542  0.80900257  0.35842793    -0.00100
Br2451     Br  0.54078502  0.91047707  0.43074285     0.00300
Br2452     Br  0.45217343  0.84703518  0.44622561    -0.04100
Br2453     Br  0.49918565  0.76745946  0.44513901     0.00400
Br2454     Br  0.49102038  0.85753619  0.38175831    -0.03400
Br2455     Br  0.54246368  0.85722803  0.41790946    -0.04200
Br2456     Br  0.45315674  0.89787429  0.46704037    -0.00300
C2457       C  0.79650807  0.59947023  0.99411097     0.01100
C2458       C  0.80984091  0.59754249  0.01309010     0.04000
C2459       C  0.83119476  0.58870887  0.01144599    -0.12100
C2460       C  0.83816499  0.57919462  0.99149535     0.23300
C2461       C  0.82374471  0.57858066  0.97327198    -0.12700
C2462       C  0.80291124  0.58864684  0.97456471     0.04700
C2463       C  0.85998853  0.56834582  0.99000275     0.27100
C2464       C  0.87778644  0.57968653  0.98035787    -0.13400
C2465       C  0.89817845  0.56896126  0.97783793     0.05200
C2466       C  0.90089229  0.54695139  0.98523203    -0.09300
C2467       C  0.88307973  0.53563005  0.99493688     0.06000
C2468       C  0.86262846  0.54630332  0.99726034    -0.13700
Br2469     Br  0.83238972  0.56324081  0.94682774    -0.05800
Br2470     Br  0.79739614  0.60272494  0.04185634    -0.00100
Br2471     Br  0.92226156  0.58421786  0.96370670     0.00300
Br2472     Br  0.83820917  0.53088405  0.01059979    -0.04100
Br2473     Br  0.78240821  0.58556375  0.95032031     0.00400
Br2474     Br  0.85075425  0.58932419  0.03655865    -0.03400
Br2475     Br  0.87416826  0.61001617  0.97090437    -0.04200
Br2476     Br  0.88699720  0.50591749  0.00610790    -0.00300
C2477       C  0.71504456  0.59369753  0.00213119     0.01100
C2478       C  0.70377483  0.58433160  0.98385519     0.04000
C2479       C  0.68243453  0.57575224  0.98662389    -0.12100
C2480       C  0.67298303  0.57497983  0.00774525     0.23300
C2481       C  0.68589166  0.58002150  0.02631925    -0.12700
C2482       C  0.70745634  0.58794394  0.02353276     0.04700
C2483       C  0.64965399  0.56842217  0.01027535     0.27100
C2484       C  0.63299934  0.58433342  0.00704491    -0.13400
C2485       C  0.61075367  0.57797371  0.00751642     0.05200
C2486       C  0.60506642  0.55566460  0.01147985    -0.09300
C2487       C  0.62181489  0.53985688  0.01544799     0.06000
C2488       C  0.64408498  0.54624828  0.01475109    -0.13700
Br2489     Br  0.67382510  0.57658400  0.05551478    -0.05800
Br2490     Br  0.71829722  0.57972048  0.95592124    -0.00100
Br2491     Br  0.58815219  0.60002262  0.00302945     0.00300
Br2492     Br  0.66709964  0.52456814  0.01904332    -0.04100
Br2493     Br  0.72730867  0.58685125  0.04855901     0.00400
Br2494     Br  0.66589277  0.56524499  0.96151977    -0.03400
Br2495     Br  0.64084929  0.61483591  0.00161300    -0.04200
Br2496     Br  0.61451325  0.50911360  0.02019949    -0.00300
C2497       C  0.76083415  0.70126963  0.14082093     0.01100
C2498       C  0.76661994  0.71631734  0.12386028     0.04000
C2499       C  0.76876555  0.70895145  0.10193504    -0.12100
C2500       C  0.76512510  0.68655241  0.09678459     0.23300
C2501       C  0.76008838  0.67138251  0.11375178    -0.12700
C2502       C  0.75790376  0.67868881  0.13567175     0.04700
C2503       C  0.76424395  0.67918108  0.07339969     0.27100
C2504       C  0.74402610  0.67958898  0.06211256    -0.13400
C2505       C  0.74204869  0.66951978  0.04135882     0.05200
C2506       C  0.76020606  0.65820088  0.03184995    -0.09300
C2507       C  0.78134828  0.66158003  0.04148770     0.06000
C2508       C  0.78312125  0.67120094  0.06264224    -0.13700
Br2509     Br  0.75576547  0.64056385  0.10668625    -0.05800
Br2510     Br  0.77010686  0.74737654  0.13024991    -0.00100
Br2511     Br  0.71437908  0.67243348  0.02583388     0.00300
Br2512     Br  0.81125300  0.67280695  0.07747367    -0.04100
Br2513     Br  0.75139656  0.65753644  0.15863953     0.00400
Br2514     Br  0.77594365  0.72958686  0.07868367    -0.03400
Br2515     Br  0.71870279  0.69316814  0.07575008    -0.04200
Br2516     Br  0.80829428  0.65531102  0.02602116    -0.00300
C2517       C  0.79414592  0.85929145  0.24729548     0.01100
C2518       C  0.79395072  0.87202540  0.22757735     0.04000
C2519       C  0.80225542  0.89379662  0.22743207    -0.12100
C2520       C  0.80987028  0.90342191  0.24709966     0.23300
C2521       C  0.80873041  0.89139733  0.26702652    -0.12700
C2522       C  0.80099184  0.86940776  0.26719522     0.04700
C2523       C  0.82079571  0.92544593  0.24674359     0.27100
C2524       C  0.84390388  0.92648901  0.24564870    -0.13400
C2525       C  0.85472682  0.94688316  0.24793933     0.05200
C2526       C  0.84244177  0.96660266  0.25082921    -0.09300
C2527       C  0.81925752  0.96574359  0.25002112     0.06000
C2528       C  0.80843761  0.94514331  0.24836784    -0.13700
Br2529     Br  0.81879842  0.90497614  0.29400453    -0.05800
Br2530     Br  0.78125951  0.86031892  0.20080006    -0.00100
Br2531     Br  0.88641772  0.94767529  0.24533037     0.00300
Br2532     Br  0.77673770  0.94370433  0.24881300    -0.04100
Br2533     Br  0.80111985  0.85314535  0.29470985     0.00400
Br2534     Br  0.80414457  0.91025607  0.20013476    -0.03400
Br2535     Br  0.86069984  0.89976748  0.24090463    -0.04200
Br2536     Br  0.80236828  0.99265860  0.25132548    -0.00300
C2537       C  0.64691780  0.74168384  0.29896704     0.01100
C2538       C  0.62973355  0.75659301  0.29368876     0.04000
C2539       C  0.60922054  0.75511430  0.30449609    -0.12100
C2540       C  0.60555794  0.73858513  0.32055633     0.23300
C2541       C  0.62248350  0.72323843  0.32540383    -0.12700
C2542       C  0.64309844  0.72483455  0.31474182     0.04700
C2543       C  0.58438704  0.73816354  0.33317067     0.27100
C2544       C  0.58345861  0.74745245  0.35432243    -0.13400
C2545       C  0.56373821  0.74685784  0.36650524     0.05200
C2546       C  0.54355044  0.73986758  0.35645742    -0.09300
C2547       C  0.54542484  0.72788155  0.33639190     0.06000
C2548       C  0.56558373  0.72751780  0.32468049    -0.13700
Br2549     Br  0.61749222  0.70037172  0.34714705    -0.05800
Br2550     Br  0.63416684  0.77885191  0.27124142    -0.00100
Br2551     Br  0.56618547  0.75240854  0.39787146     0.00300
Br2552     Br  0.56786284  0.71189135  0.29711092    -0.04100
Br2553     Br  0.66654431  0.70477076  0.32282486     0.00400
Br2554     Br  0.58619326  0.77613850  0.29779578    -0.03400
Br2555     Br  0.60947887  0.76113931  0.36665274    -0.04200
Br2556     Br  0.52248067  0.70819737  0.32667917    -0.00300
C2557       C  0.69124355  0.65548450  0.22895022     0.01100
C2558       C  0.66875545  0.65163612  0.23352632     0.04000
C2559       C  0.66052943  0.62989371  0.23403013    -0.12100
C2560       C  0.67460559  0.61196176  0.22952587     0.23300
C2561       C  0.69662917  0.61585489  0.22344438    -0.12700
C2562       C  0.70503971  0.63754422  0.22338010     0.04700
C2563       C  0.66675026  0.58898379  0.23295768     0.27100
C2564       C  0.67162865  0.57799859  0.25286561    -0.13400
C2565       C  0.66361546  0.55654533  0.25661870     0.05200
C2566       C  0.64900098  0.54658761  0.24143012    -0.09300
C2567       C  0.64631745  0.55662232  0.22035929     0.06000
C2568       C  0.65493710  0.57794129  0.21634626    -0.13700
Br2569     Br  0.71539083  0.59121102  0.21603139    -0.05800
Br2570     Br  0.64900520  0.67614410  0.23872350    -0.00100
Br2571     Br  0.67474247  0.53988016  0.28142808     0.00300
Br2572     Br  0.65023656  0.59250066  0.18828798    -0.04100
Br2573     Br  0.73589466  0.64223195  0.21747345     0.00400
Br2574     Br  0.63013794  0.62451095  0.24161318    -0.03400
Br2575     Br  0.68863910  0.59273595  0.27540066    -0.04200
Br2576     Br  0.63246237  0.54158320  0.19615981    -0.00300
C2577       C  0.84973229  0.76548512  0.19192899     0.01100
C2578       C  0.85703547  0.75893962  0.17081513     0.04000
C2579       C  0.87976543  0.75740652  0.16623345    -0.12100
C2580       C  0.89550162  0.76278550  0.18250522     0.23300
C2581       C  0.88833441  0.77016583  0.20328528    -0.12700
C2582       C  0.86558474  0.77146044  0.20804444     0.04700
C2583       C  0.91952756  0.76071302  0.17746642     0.27100
C2584       C  0.93053867  0.74044563  0.18074900    -0.13400
C2585       C  0.95205447  0.73738730  0.17252862     0.05200
C2586       C  0.96276582  0.75455278  0.16062633    -0.09300
C2587       C  0.95279108  0.77581537  0.16039008     0.06000
C2588       C  0.93107229  0.77864880  0.16821430    -0.13700
Br2589     Br  0.90988542  0.77801965  0.22534268    -0.05800
Br2590     Br  0.83594611  0.75294500  0.14769292    -0.00100
Br2591     Br  0.96674853  0.70943761  0.17761721     0.00300
Br2592     Br  0.91639367  0.80686893  0.16514281    -0.04100
Br2593     Br  0.85643540  0.78020259  0.23718291     0.00400
Br2594     Br  0.88953684  0.74764379  0.13762155    -0.03400
Br2595     Br  0.91554210  0.71652418  0.19556023    -0.04200
Br2596     Br  0.96801559  0.80149226  0.14958748    -0.00300
C2597       C  0.78209051  0.91143652  0.49989204     0.01100
C2598       C  0.78896903  0.92630669  0.48320853     0.04000
C2599       C  0.81057673  0.93476289  0.48294075    -0.12100
C2600       C  0.82490764  0.93077059  0.50080639     0.23300
C2601       C  0.81691224  0.91912005  0.51933974    -0.12700
C2602       C  0.79561832  0.90945215  0.51894556     0.04700
C2603       C  0.84794737  0.93968884  0.50026070     0.27100
C2604       C  0.86569080  0.92598344  0.49404945    -0.13400
C2605       C  0.88714760  0.93481119  0.49191503     0.05200
C2606       C  0.89104362  0.95755629  0.49571412    -0.09300
C2607       C  0.87331398  0.97114494  0.50233489     0.06000
C2608       C  0.85195076  0.96222016  0.50471665    -0.13700
Br2609     Br  0.83545308  0.91626626  0.54511228    -0.05800
Br2610     Br  0.76784393  0.93762506  0.46238655    -0.00100
Br2611     Br  0.91096932  0.91583151  0.48270195     0.00300
Br2612     Br  0.82797931  0.98082861  0.51418011    -0.04100
Br2613     Br  0.78512476  0.89509787  0.54518544     0.00400
Br2614     Br  0.82085432  0.95112123  0.45757180    -0.03400
Br2615     Br  0.86038892  0.89514187  0.48794325    -0.04200
Br2616     Br  0.87836678  0.00190069  0.50907930    -0.00300
C2617       C  0.70081022  0.90058652  0.50107923     0.01100
C2618       C  0.69904213  0.92247508  0.50912962     0.04000
C2619       C  0.67804276  0.93193916  0.51314551    -0.12100
C2620       C  0.65860666  0.92023977  0.50787818     0.23300
C2621       C  0.66028441  0.89842259  0.50013300    -0.12700
C2622       C  0.68104111  0.88831709  0.49772923     0.04700
C2623       C  0.63630274  0.93086043  0.50929048     0.27100
C2624       C  0.62179863  0.92547518  0.52667252    -0.13400
C2625       C  0.59964903  0.93281737  0.52615912     0.05200
C2626       C  0.59184588  0.94590532  0.50838834    -0.09300
C2627       C  0.60662680  0.95188577  0.49139011     0.06000
C2628       C  0.62865173  0.94434341  0.49181316    -0.13700
Br2629     Br  0.63386196  0.88250389  0.49202144    -0.05800
Br2630     Br  0.72502774  0.94027387  0.51332283    -0.00100
Br2631     Br  0.57960669  0.92350679  0.54897685     0.00300
Br2632     Br  0.64829142  0.95185853  0.46796907    -0.04100
Br2633     Br  0.68159487  0.85695732  0.49144184     0.00400
Br2634     Br  0.67569088  0.96109135  0.52564889    -0.03400
Br2635     Br  0.63226064  0.90741325  0.55085935    -0.04200
Br2636     Br  0.59689256  0.97083943  0.46753142    -0.00300
C2637       C  0.74524103  0.85378543  0.45004041     0.01100
C2638       C  0.73746548  0.83149526  0.44777696     0.04000
C2639       C  0.73767996  0.82086416  0.42702529    -0.12100
C2640       C  0.74314930  0.83265998  0.40782851     0.23300
C2641       C  0.74855942  0.85512135  0.40933525    -0.12700
C2642       C  0.74868322  0.86581656  0.42994623     0.04700
C2643       C  0.74100723  0.82227222  0.38564276     0.27100
C2644       C  0.75959198  0.81309770  0.37535174    -0.13400
C2645       C  0.75812379  0.80528675  0.35355182     0.05200
C2646       C  0.73811771  0.80714183  0.34156323    -0.09300
C2647       C  0.71921651  0.81546254  0.35226313     0.06000
C2648       C  0.72069287  0.82296398  0.37423691    -0.13700
Br2649     Br  0.75485510  0.87147412  0.38252733    -0.05800
Br2650     Br  0.72113268  0.81637720  0.47063178    -0.00100
Br2651     Br  0.78349629  0.79111504  0.34060146     0.00300
Br2652     Br  0.69507115  0.83502143  0.38860895    -0.04100
Br2653     Br  0.74914126  0.89763240  0.42889621     0.00400
Br2654     Br  0.72944402  0.79009816  0.42439027    -0.03400
Br2655     Br  0.78724905  0.81183728  0.39109541    -0.04200
Br2656     Br  0.69154216  0.81785072  0.33664343    -0.00300
C2657       C  0.90615137  0.50535980  0.71103983     0.01100
C2658       C  0.90117575  0.52304309  0.69637118     0.04000
C2659       C  0.90987376  0.52336445  0.67485032    -0.12100
C2660       C  0.92259850  0.50553425  0.66723544     0.23300
C2661       C  0.92663419  0.48732684  0.68122036    -0.12700
C2662       C  0.91872853  0.48730182  0.70304581     0.04700
C2663       C  0.93195731  0.50606628  0.64456656     0.27100
C2664       C  0.91849422  0.50165276  0.62615623    -0.13400
C2665       C  0.92713607  0.50321020  0.60465369     0.05200
C2666       C  0.94987327  0.50765036  0.60141208    -0.09300
C2667       C  0.96346209  0.51133436  0.62015775     0.06000
C2668       C  0.95431996  0.51128224  0.64148071    -0.13700
Br2669     Br  0.94276141  0.46218521  0.67011922    -0.05800
Br2670     Br  0.88246371  0.54712721  0.70491044    -0.00100
Br2671     Br  0.90701365  0.50076989  0.57998447     0.00300
Br2672     Br  0.97236032  0.51865974  0.66671472    -0.04100
Br2673     Br  0.92372907  0.46134829  0.72098764     0.00400
Br2674     Br  0.90477753  0.54853463  0.65568021    -0.03400
Br2675     Br  0.88808162  0.49339948  0.63056904    -0.04200
Br2676     Br  0.99494546  0.51522831  0.61739090    -0.00300
C2677       C  0.91572908  0.49548953  0.79431400     0.01100
C2678       C  0.92210741  0.47340233  0.79989762     0.04000
C2679       C  0.93046025  0.46838624  0.82108623    -0.12100
C2680       C  0.93450600  0.48543031  0.83620140     0.23300
C2681       C  0.93216965  0.50755456  0.82935443    -0.12700
C2682       C  0.92376439  0.51259044  0.80821354     0.04700
C2683       C  0.94232452  0.48042219  0.85897865     0.27100
C2684       C  0.92710505  0.47939358  0.87639412    -0.13400
C2685       C  0.93453351  0.47768881  0.89838436     0.05200
C2686       C  0.95738814  0.47718735  0.90314239    -0.09300
C2687       C  0.97259755  0.47699724  0.88542015     0.06000
C2688       C  0.96500846  0.47846458  0.86346125    -0.13700
Br2689     Br  0.94077743  0.53099972  0.84915310    -0.05800
Br2690     Br  0.92232081  0.45005203  0.77827032    -0.00100
Br2691     Br  0.91310839  0.47531872  0.92174428     0.00300
Br2692     Br  0.98567294  0.47849086  0.83932664    -0.04100
Br2693     Br  0.92819949  0.54221248  0.79733277     0.00400
Br2694     Br  0.93623005  0.43810901  0.82966503    -0.03400
Br2695     Br  0.89597569  0.48062551  0.86989900    -0.04200
Br2696     Br  0.00402068  0.47640145  0.89073124    -0.00300
C2697       C  0.85130626  0.46782387  0.74878128     0.01100
C2698       C  0.84883307  0.45853608  0.72746854     0.04000
C2699       C  0.83601351  0.43930447  0.72450492    -0.12100
C2700       C  0.82678746  0.42836437  0.74281012     0.23300
C2701       C  0.82782412  0.43832974  0.76369747    -0.12700
C2702       C  0.83899151  0.45853948  0.76642679     0.04700
C2703       C  0.81748050  0.40569209  0.74030192     0.27100
C2704       C  0.79453342  0.40224218  0.74011002    -0.13400
C2705       C  0.78597557  0.38063993  0.73822583     0.05200
C2706       C  0.80032513  0.36236825  0.73549553    -0.09300
C2707       C  0.82334469  0.36597311  0.73539695     0.06000
C2708       C  0.83183929  0.38747042  0.73816730    -0.13700
Br2709     Br  0.81515730  0.42353162  0.78892785    -0.05800
Br2710     Br  0.86383509  0.47040433  0.70215985    -0.00100
Br2711     Br  0.75459984  0.37617537  0.74093781     0.00300
Br2712     Br  0.86332837  0.39204727  0.73918111    -0.04100
Br2713     Br  0.83664056  0.47361953  0.79440674     0.00400
Br2714     Br  0.83173570  0.42710120  0.69541697    -0.03400
Br2715     Br  0.77486210  0.42724809  0.74227619    -0.04200
Br2716     Br  0.84349918  0.34176266  0.73042142    -0.00300
C2717       C  0.65120380  0.24463660  0.69139860     0.01100
C2718       C  0.63825993  0.22512865  0.69164721     0.04000
C2719       C  0.61619678  0.22573390  0.68451599    -0.12100
C2720       C  0.60713769  0.24541071  0.67590475     0.23300
C2721       C  0.62024836  0.26457992  0.67440271    -0.12700
C2722       C  0.64204874  0.26440243  0.68256393     0.04700
C2723       C  0.58360563  0.24583501  0.66894743     0.27100
C2724       C  0.57723297  0.23648650  0.64879074    -0.13400
C2725       C  0.55473235  0.23420137  0.64338208     0.05200
C2726       C  0.53815257  0.24372323  0.65701969    -0.09300
C2727       C  0.54518068  0.25455539  0.67674688     0.06000
C2728       C  0.56755340  0.25448407  0.68307152    -0.13700
Br2729     Br  0.60805883  0.29114317  0.66136275    -0.05800
Br2730     Br  0.65069885  0.19702399  0.70072859    -0.00100
Br2731     Br  0.54797721  0.21654342  0.61785735     0.00300
Br2732     Br  0.57657822  0.26664986  0.71114994    -0.04100
Br2733     Br  0.65843764  0.29180451  0.68285933     0.00400
Br2734     Br  0.59800391  0.19963255  0.68703544    -0.03400
Br2735     Br  0.59979717  0.22713901  0.62842567    -0.04200
Br2736     Br  0.52569042  0.27242667  0.69434112    -0.00300
C2737       C  0.74215532  0.30932639  0.64242377     0.01100
C2738       C  0.74850388  0.29468258  0.62547231     0.04000
C2739       C  0.75027354  0.30233081  0.60360256    -0.12100
C2740       C  0.74631693  0.32475178  0.59858482     0.23300
C2741       C  0.74085178  0.33959369  0.61557636    -0.12700
C2742       C  0.73845530  0.33185831  0.63741022     0.04700
C2743       C  0.74690578  0.33247655  0.57527396     0.27100
C2744       C  0.76689870  0.33877443  0.56548567    -0.13400
C2745       C  0.76729146  0.34657884  0.54348790     0.05200
C2746       C  0.74715850  0.34980219  0.53168234    -0.09300
C2747       C  0.72774126  0.34036101  0.54074141     0.06000
C2748       C  0.72753273  0.33233559  0.56255872    -0.13700
Br2749     Br  0.73646177  0.37049356  0.60873981    -0.05800
Br2750     Br  0.75565990  0.26421397  0.63218289    -0.00100
Br2751     Br  0.79589531  0.35048379  0.53031618     0.00300
Br2752     Br  0.70052525  0.32149035  0.57539724    -0.04100
Br2753     Br  0.72868520  0.35184773  0.66007714     0.00400
Br2754     Br  0.75783780  0.28207320  0.58030978    -0.03400
Br2755     Br  0.79371288  0.33711048  0.58272506    -0.04200
Br2756     Br  0.70166034  0.33638680  0.52282706    -0.00300
C2757       C  0.85260801  0.27322866  0.79672142     0.01100
C2758       C  0.86066098  0.29205229  0.80777527     0.04000
C2759       C  0.88150841  0.29144768  0.81802151    -0.12100
C2760       C  0.89452151  0.27214896  0.81693195     0.23300
C2761       C  0.88684163  0.25365244  0.80515904    -0.12700
C2762       C  0.86581256  0.25407851  0.79529560     0.04700
C2763       C  0.91496891  0.27030210  0.83035289     0.27100
C2764       C  0.93534103  0.27749854  0.82211288    -0.13400
C2765       C  0.95457605  0.27570276  0.83520204     0.05200
C2766       C  0.95392593  0.26464482  0.85601744    -0.09300
C2767       C  0.93262214  0.26042853  0.86515285     0.06000
C2768       C  0.91354558  0.26247165  0.85208864    -0.13700
Br2769     Br  0.90510490  0.22761345  0.80303452    -0.05800
Br2770     Br  0.84256840  0.31821888  0.81000546    -0.00100
Br2771     Br  0.97942629  0.29334569  0.82626619     0.00300
Br2772     Br  0.88502230  0.25458953  0.86393904    -0.04100
Br2773     Br  0.85514240  0.22845781  0.77972446     0.00400
Br2774     Br  0.89195315  0.31667613  0.83437564    -0.03400
Br2775     Br  0.93655746  0.29036242  0.79292651    -0.04200
Br2776     Br  0.92822252  0.25381864  0.89611149    -0.00300
C2777       C  0.76450864  0.20486974  0.84431042     0.01100
C2778       C  0.76289229  0.18165854  0.84733358     0.04000
C2779       C  0.75996542  0.17271433  0.86862971    -0.12100
C2780       C  0.75956897  0.18670528  0.88708883     0.23300
C2781       C  0.76163938  0.20972002  0.88427635    -0.12700
C2782       C  0.76361052  0.21885896  0.86299491     0.04700
C2783       C  0.75689775  0.17727761  0.90956260     0.27100
C2784       C  0.73582818  0.17548801  0.91887582    -0.13400
C2785       C  0.73332156  0.16677729  0.94029657     0.05200
C2786       C  0.75173568  0.15791088  0.95188804    -0.09300
C2787       C  0.77301340  0.16380044  0.94396469     0.06000
C2788       C  0.77553101  0.17221992  0.92243466    -0.13700
Br2789     Br  0.76155369  0.22870618  0.90981512    -0.05800
Br2790     Br  0.76582194  0.16173631  0.82270751    -0.00100
Br2791     Br  0.70556744  0.17146363  0.95472033     0.00300
Br2792     Br  0.80456681  0.17709939  0.91047405    -0.04100
Br2793     Br  0.76348379  0.25071715  0.85984689     0.00400
Br2794     Br  0.75633241  0.14123429  0.87273319    -0.03400
Br2795     Br  0.71042139  0.18531022  0.90220732    -0.04200
Br2796     Br  0.79838543  0.16484768  0.96331846    -0.00300
C2797       C  0.60322438  0.99893448  0.78018513     0.01100
C2798       C  0.58018215  0.00152759  0.78103848     0.04000
C2799       C  0.56890583  0.99763595  0.80093742    -0.12100
C2800       C  0.58058842  0.99061427  0.81985227     0.23300
C2801       C  0.60343359  0.98695309  0.81872753    -0.12700
C2802       C  0.61475744  0.99120019  0.79903183     0.04700
C2803       C  0.56924356  0.98838307  0.84134368     0.27100
C2804       C  0.56589251  0.00729712  0.85434798    -0.13400
C2805       C  0.55592895  0.00533107  0.87514126     0.05200
C2806       C  0.55000884  0.98425270  0.88344421    -0.09300
C2807       C  0.55356980  0.96526871  0.87042354     0.06000
C2808       C  0.56288362  0.96740234  0.84927724    -0.13700
Br2809     Br  0.61931825  0.97667519  0.84447977    -0.05800
Br2810     Br  0.56408594  0.01090807  0.75526771    -0.00100
Br2811     Br  0.54958567  0.03183123  0.89165548     0.00300
Br2812     Br  0.56744540  0.94160842  0.83122409    -0.04100
Br2813     Br  0.64600734  0.98526728  0.79784842     0.00400
Br2814     Br  0.53757991  0.00268458  0.80266772    -0.03400
Br2815     Br  0.57551284  0.03589832  0.84375769    -0.04200
Br2816     Br  0.54710463  0.93617983  0.88198033    -0.00300
C2817       C  0.59891280  0.00682068  0.70230134     0.01100
C2818       C  0.58448975  0.02486886  0.69801778     0.04000
C2819       C  0.57045198  0.02455625  0.67947591    -0.12100
C2820       C  0.57062675  0.00633487  0.66518084     0.23300
C2821       C  0.58337808  0.98759411  0.67042677    -0.12700
C2822       C  0.59787045  0.98797158  0.68857599     0.04700
C2823       C  0.56108108  0.00842073  0.64271860     0.27100
C2824       C  0.53883015  0.00329699  0.63845315    -0.13400
C2825       C  0.53071071  0.00414602  0.61664734     0.05200
C2826       C  0.54496928  0.00965226  0.59915334    -0.09300
C2827       C  0.56706946  0.01505136  0.60350207     0.06000
C2828       C  0.57504230  0.01472981  0.62525107    -0.13700
Br2829     Br  0.58185591  0.96191773  0.65162387    -0.05800
Br2830     Br  0.58408219  0.05056965  0.71687799    -0.00100
Br2831     Br  0.50029788  0.99719785  0.61056038     0.00300
Br2832     Br  0.60532568  0.02257686  0.63116209    -0.04100
Br2833     Br  0.61801953  0.96362051  0.69232555     0.00400
Br2834     Br  0.55162890  0.04950292  0.67286938    -0.03400
Br2835     Br  0.51983277  0.99455473  0.66235720    -0.04200
Br2836     Br  0.58650292  0.02254241  0.57950409    -0.00300
C2837       C  0.66177841  0.04509721  0.74288573     0.01100
C2838       C  0.66900863  0.05607020  0.72343493     0.04000
C2839       C  0.67628169  0.07821358  0.72430179    -0.12100
C2840       C  0.67908124  0.08875145  0.74478375     0.23300
C2841       C  0.67605793  0.07645042  0.76429553    -0.12700
C2842       C  0.66828899  0.05449539  0.76336039     0.04700
C2843       C  0.68710241  0.11205353  0.74600821     0.27100
C2844       C  0.70953241  0.11684413  0.74238417    -0.13400
C2845       C  0.71731640  0.13868584  0.74437809     0.05200
C2846       C  0.70306052  0.15573243  0.75136887    -0.09300
C2847       C  0.68057790  0.15096880  0.75493868     0.06000
C2848       C  0.67256845  0.12928003  0.75187069    -0.13700
Br2849     Br  0.68267735  0.08982799  0.79243385    -0.05800
Br2850     Br  0.67278075  0.04001297  0.69622471    -0.00100
Br2851     Br  0.74729271  0.14540907  0.73617897     0.00300
Br2852     Br  0.64169368  0.12298637  0.75597706    -0.04100
Br2853     Br  0.67077944  0.03667631  0.78971011     0.00400
Br2854     Br  0.68187499  0.09431193  0.69733634    -0.03400
Br2855     Br  0.72981644  0.09329950  0.73538681    -0.04200
Br2856     Br  0.66092472  0.17380832  0.76516223    -0.00300
C2857       C  0.79972015  0.64799704  0.75357726     0.01100
C2858       C  0.79968194  0.63477963  0.73434182     0.04000
C2859       C  0.81040616  0.61410741  0.73431965    -0.12100
C2860       C  0.81989056  0.60572419  0.75386834     0.23300
C2861       C  0.81810188  0.61784967  0.77357117    -0.12700
C2862       C  0.80841163  0.63906154  0.77343700     0.04700
C2863       C  0.83298533  0.58487901  0.75358801     0.27100
C2864       C  0.82252722  0.56409039  0.75383876    -0.13400
C2865       C  0.83518300  0.54448943  0.75453364     0.05200
C2866       C  0.85842434  0.54555700  0.75600573    -0.09300
C2867       C  0.86879598  0.56655863  0.75533434     0.06000
C2868       C  0.85612985  0.58601604  0.75365079    -0.13700
Br2869     Br  0.82972062  0.60548435  0.80066062    -0.05800
Br2870     Br  0.78386619  0.64419016  0.70818765    -0.00100
Br2871     Br  0.82027193  0.51642596  0.75402306     0.00300
Br2872     Br  0.87042552  0.61447891  0.75104001    -0.04100
Br2873     Br  0.80846441  0.65596540  0.80039495     0.00400
Br2874     Br  0.81299649  0.59766421  0.70724522    -0.03400
Br2875     Br  0.79076642  0.56261645  0.75374509    -0.04200
Br2876     Br  0.90046275  0.56910915  0.75517529    -0.00300
C2877       C  0.75547178  0.80499124  0.64393385     0.01100
C2878       C  0.75050225  0.79165683  0.62556017     0.04000
C2879       C  0.75166546  0.80050617  0.60398151    -0.12100
C2880       C  0.75787888  0.82276004  0.60058194     0.23300
C2881       C  0.76391442  0.83576173  0.61890855    -0.12700
C2882       C  0.76266346  0.82692589  0.64049094     0.04700
C2883       C  0.75554464  0.83314529  0.57819834     0.27100
C2884       C  0.77256690  0.83200078  0.56248791    -0.13400
C2885       C  0.76972966  0.84150195  0.54125473     0.05200
C2886       C  0.74991913  0.85277533  0.53567605    -0.09300
C2887       C  0.73308878  0.85405289  0.55172578     0.06000
C2888       C  0.73581939  0.84412425  0.57265922    -0.13700
Br2889     Br  0.77341580  0.86587045  0.61433389    -0.05800
Br2890     Br  0.74144072  0.76141601  0.63008952    -0.00100
Br2891     Br  0.79379657  0.84031218  0.52052586     0.00300
Br2892     Br  0.71228073  0.84527641  0.59400726    -0.04100
Br2893     Br  0.77063674  0.84487987  0.66546188     0.00400
Br2894     Br  0.74408005  0.78240624  0.57899760    -0.03400
Br2895     Br  0.79993458  0.81775693  0.57039077    -0.04200
Br2896     Br  0.70566684  0.86864429  0.54538862    -0.00300
C2897       C  0.64599646  0.75582900  0.80126327     0.01100
C2898       C  0.62820943  0.75923449  0.78649522     0.04000
C2899       C  0.60626147  0.75836092  0.79412240    -0.12100
C2900       C  0.60177533  0.75322962  0.81638140     0.23300
C2901       C  0.61948895  0.74950063  0.83109123    -0.12700
C2902       C  0.64145588  0.75116758  0.82368701     0.04700
C2903       C  0.57848358  0.75215503  0.82443258     0.27100
C2904       C  0.56968568  0.76974078  0.83669966    -0.13400
C2905       C  0.54811229  0.76847736  0.84525433     0.05200
C2906       C  0.53445211  0.74995449  0.84074651    -0.09300
C2907       C  0.54332475  0.73251331  0.82788435     0.06000
C2908       C  0.56527573  0.73348388  0.82019066    -0.13700
Br2909     Br  0.61356507  0.74173583  0.86142135    -0.05800
Br2910     Br  0.63368159  0.76346822  0.75542792    -0.00100
Br2911     Br  0.53811102  0.79264674  0.86300885     0.00300
Br2912     Br  0.57778117  0.70874474  0.80456944    -0.04100
Br2913     Br  0.66531357  0.74780197  0.84461688     0.00400
Br2914     Br  0.58217311  0.76414691  0.77405122    -0.03400
Br2915     Br  0.58750082  0.79576630  0.84170308    -0.04200
Br2916     Br  0.52653209  0.70592575  0.82258754    -0.00300
C2917       C  0.69170002  0.84951550  0.73591529     0.01100
C2918       C  0.70074194  0.86538478  0.75033496     0.04000
C2919       C  0.69336447  0.88749015  0.74953894    -0.12100
C2920       C  0.67692433  0.89389185  0.73431428     0.23300
C2921       C  0.66812016  0.87812049  0.71965718    -0.12700
C2922       C  0.67548070  0.85598261  0.72046343     0.04700
C2923       C  0.66776999  0.91678442  0.73489199     0.27100
C2924       C  0.64985610  0.92144927  0.74865868    -0.13400
C2925       C  0.64096942  0.94300711  0.74960152     0.05200
C2926       C  0.65071811  0.96070841  0.73736312    -0.09300
C2927       C  0.66820375  0.95540825  0.72268481     0.06000
C2928       C  0.67669107  0.93365999  0.72166463    -0.13700
Br2929     Br  0.64552520  0.88684534  0.69891528    -0.05800
Br2930     Br  0.72356079  0.85690736  0.77096517    -0.00100
Br2931     Br  0.61517088  0.94652636  0.76763294     0.00300
Br2932     Br  0.70055090  0.92662589  0.70193700    -0.04100
Br2933     Br  0.66249559  0.83421964  0.70125432     0.00400
Br2934     Br  0.70539247  0.90904892  0.76959986    -0.03400
Br2935     Br  0.63767023  0.89780137  0.76650285    -0.04200
Br2936     Br  0.67929051  0.97692521  0.70181331    -0.00300
C2937       C  0.74243691  0.69648041  0.84667302     0.01100
C2938       C  0.73581668  0.67503817  0.85288468     0.04000
C2939       C  0.73922093  0.66755043  0.87465761    -0.12100
C2940       C  0.74913299  0.68155003  0.89036871     0.23300
C2941       C  0.75564137  0.70307332  0.88419987    -0.12700
C2942       C  0.75243011  0.71046692  0.86234320     0.04700
C2943       C  0.75175601  0.67371784  0.91352511     0.27100
C2944       C  0.73396353  0.67539803  0.92810570    -0.13400
C2945       C  0.73495674  0.66509158  0.94893728     0.05200
C2946       C  0.75373868  0.65249961  0.95534550    -0.09300
C2947       C  0.77261895  0.65323008  0.94154452     0.06000
C2948       C  0.77141842  0.66354833  0.92060352    -0.13700
Br2949     Br  0.76911955  0.72223312  0.90570039    -0.05800
Br2950     Br  0.72240023  0.65587184  0.83137069    -0.00100
Br2951     Br  0.71048938  0.66929520  0.96865386     0.00300
Br2952     Br  0.79643556  0.66319607  0.90101482    -0.04100
Br2953     Br  0.76225893  0.73955413  0.85363868     0.00400
Br2954     Br  0.73064794  0.63793972  0.88299869    -0.03400
Br2955     Br  0.70786747  0.69140921  0.91899320    -0.04200
Br2956     Br  0.80033251  0.64027478  0.95022833    -0.00300
C2957       C  0.84654664  0.74018906  0.69375809     0.01100
C2958       C  0.85635700  0.71983570  0.68760068     0.04000
C2959       C  0.87855015  0.71926928  0.68092316    -0.12100
C2960       C  0.89068012  0.73903143  0.67918328     0.23300
C2961       C  0.88138099  0.75908329  0.68629401    -0.12700
C2962       C  0.85964592  0.75957067  0.69419956     0.04700
C2963       C  0.91165322  0.73933429  0.66671664     0.27100
C2964       C  0.93217529  0.74083577  0.67756342    -0.13400
C2965       C  0.95166578  0.74333846  0.66518917     0.05200
C2966       C  0.95065942  0.74383097  0.64193121    -0.09300
C2967       C  0.93015540  0.74065357  0.63123288     0.06000
C2968       C  0.91074143  0.73900053  0.64354619    -0.13700
Br2969     Br  0.89811447  0.78616563  0.68406522    -0.05800
Br2970     Br  0.83937730  0.69283198  0.68635671    -0.00100
Br2971     Br  0.97937688  0.74707908  0.68023285     0.00300
Br2972     Br  0.88261452  0.73715632  0.62855195    -0.04100
Br2973     Br  0.84844192  0.78683211  0.70640432     0.00400
Br2974     Br  0.89228494  0.69161055  0.67295846    -0.03400
Br2975     Br  0.93334397  0.74004684  0.70933595    -0.04200
Br2976     Br  0.92838874  0.73725229  0.59964936    -0.00300
loop_ 
_geom_bond_atom_site_label_1 
_geom_bond_atom_site_label_2 
_geom_bond_distance 
_geom_bond_site_symmetry_2 
_ccdc_geom_bond_type 
O1           Mg3   2.149       .  S
O1           Mg9   2.148       .  S
O1           C36   1.238       .  S
C2           O15   1.239       .  S
C2           O39   1.275       .  A
C2           H41   1.078       .  S
Mg3          O32   2.143       .  S
Mg3          O47   2.326       .  S
Mg3          O43   2.274       .  S
Mg3          O14   2.299       .  S
O4          Mg46   2.139       .  S
O4          Mg29   2.145       .  S
O4           C25   1.238       .  S
O5           C36   1.273       .  A
O5          Mg29   2.307       .  S
C6            O8   1.271       .  A
C6           O20   1.274       .  A
C6         C2857   1.490       .  S
O7           C35   1.271       .  A
O7           Mg9   2.301       .  S
O8          Mg40   2.262       .  S
Mg9          O15   2.172       .  S
Mg9          O23   2.307       .  S
Mg9          O11   2.324       .  S
C10          O48   1.269       .  A
C10          O16   1.279       .  A
C10        C2937   1.475       .  S
O11          C18   1.278       .  A
H12          C25   1.081       .  S
C13          O27   1.239       .  S
C13          O28   1.273       .  A
C13          H38   1.080       .  S
O14          C37   1.271       .  A
O15         Mg29   2.155       .  S
O16         Mg46   2.346       .  S
C17          O30   1.273       .  A
C17          O22   1.282       .  A
C17        C2897   1.493       .  S
C18          O45   1.275       .  A
C18        C2917   1.481       .  S
Mg19         O26   2.124       .  S
Mg19         O27   2.137       .  S
Mg19         O20   2.317       .  S
Mg19         O21   2.304       .  S
Mg19         O48   2.242       .  S
O21          C25   1.272       .  A
O22         Mg29   2.357       .  S
O23          C42   1.277       .  A
O24          C44   1.273       .  A
O24         Mg40   2.299       .  S
O26         Mg40   2.127       .  S
O26          C37   1.237       .  S
O27         Mg46   2.134       .  S
O28         Mg40   2.303       .  S
Mg29         O45   2.276       .  S
O30         Mg46   2.264       .  S
H31          C36   1.081       .  S
O32         Mg40   2.143       .  S
O32          C35   1.237       .  S
H33          C35   1.080       .  S
H34          C37   1.079       .  S
O39         Mg46   2.315       .  S
C42          O47   1.277       .  A
C42        C2877   1.488       .  S
O43          C44   1.274       .  A
C44        C2957   1.487       .  S
C49          C50   1.539       .  S
C49          C55   1.541       .  S
C49          C53   1.544       .  S
C49        C2837   1.554       .  S
C50          H57   1.084       .  S
C50          C51   1.361       .  D
C51          C52   1.542   1_545  S
C51        C2797   1.484   1_545  S
C52          C56   1.540   1_565  S
C52          C54   1.549       .  S
C52          H58   1.106       .  S
C53          H59   1.085       .  S
C53          C54   1.380   1_545  D
C54        C2926   1.518       .  S
C55          H60   1.084       .  S
C55          C56   1.363       .  D
C56        C2817   1.495       .  S
O61         Mg63   2.150       .  S
O61         Mg69   2.142       .  S
O61          C96   1.239       .  S
C62          O75   1.237       .  S
C62          O99   1.271       .  A
C62         H101   1.081       .  S
Mg63         O92   2.139       .  S
Mg63        O107   2.319       .  S
Mg63        O103   2.268       .  S
Mg63         O74   2.301       .  S
O64        Mg106   2.150       .  S
O64         Mg89   2.140       .  S
O64          C85   1.238       .  S
O65          C96   1.274       .  A
O65         Mg89   2.313       .  S
C66          O68   1.275       .  A
C66          O80   1.276       .  A
C66        C2846   1.485       .  S
O67          C95   1.273       .  A
O67         Mg69   2.308       .  S
O68        Mg100   2.279       .  S
Mg69         O75   2.135       .  S
Mg69         O83   2.261       .  S
Mg69         O71   2.317       .  S
C70         O108   1.271       .  A
C70          O76   1.276       .  A
C70        C2717   1.490       .  S
O71          C78   1.276       .  A
H72          C85   1.079       .  S
C73          O87   1.238       .  S
C73          O88   1.271       .  A
C73          H98   1.082       .  S
O74          C97   1.271       .  A
O75         Mg89   2.138       .  S
O76        Mg106   2.319       .  S
C77          O90   1.272       .  A
C77          O82   1.278       .  A
C77        C2737   1.481       .  S
C78         O105   1.273       .  A
C78        C2706   1.489       .  S
Mg79         O86   2.129       .  S
Mg79         O87   2.147       .  S
Mg79         O80   2.315       .  S
Mg79         O81   2.294       .  S
Mg79        O108   2.250       .  S
O81          C85   1.271       .  A
O82         Mg89   2.326       .  S
O83         C102   1.271       .  A
O84         C104   1.277       .  A
O84        Mg100   2.317       .  S
O86        Mg100   2.139       .  S
O86          C97   1.237       .  S
O87        Mg106   2.129       .  S
O88        Mg100   2.294       .  S
Mg89        O105   2.276       .  S
O90        Mg106   2.256       .  S
H91          C96   1.081       .  S
O92        Mg100   2.149       .  S
O92          C95   1.238       .  S
H93          C95   1.080       .  S
H94          C97   1.081       .  S
O99        Mg106   2.301       .  S
C102        O107   1.276       .  A
C102       C2757   1.477       .  S
O103        C104   1.273       .  A
C104       C2777   1.489       .  S
C109        C110   1.537       .  S
C109        C115   1.546       .  S
C109        C113   1.538       .  S
C109       C2677   1.557       .  S
C110        H117   1.084       .  S
C110        C111   1.365       .  D
C111        C112   1.548       .  S
C111       C2697   1.505       .  S
C112        C116   1.546       .  S
C112        C114   1.549       .  S
C112        H118   1.108       .  S
C113        H119   1.086       .  S
C113        C114   1.373       .  D
C114       C2657   1.504       .  S
C115        H120   1.083       .  S
C115        C116   1.368       .  D
C116       C2866   1.498       .  S
C121        C122   1.541       .  S
C121        C127   1.524       .  S
C121        C125   1.552       .  S
C121       C2637   1.565       .  S
C122        H129   1.086       .  S
C122        C123   1.376       .  D
C123        C124   1.563       .  S
C123       C2597   1.517       .  S
C124        C128   1.560       .  S
C124        C126   1.547       .  S
C124        H130   1.107       .  S
C125        H131   1.082       .  S
C125        C126   1.371       .  D
C126       C2886   1.508       .  S
C127        H132   1.087       .  S
C127        C128   1.361       .  D
C128       C2617   1.513       .  S
O133       Mg135   2.172       .  S
O133       Mg141   2.163       .  S
O133        C168   1.238       .  S
C134        O147   1.239       .  S
C134        O171   1.275       .  A
C134        H173   1.076       .  S
Mg135       O164   2.153       .  S
Mg135       O179   2.316       .  S
Mg135       O175   2.300       .  S
Mg135       O146   2.291       .  S
O136       Mg178   2.134       .  S
O136       Mg161   2.160       .  S
O136        C157   1.240       .  S
O137        C168   1.273       .  A
O137       Mg161   2.309       .  S
C138        O140   1.275       .  A
C138        O152   1.280       .  A
C138       C2577   1.495       .  S
O139        C167   1.270       .  A
O139       Mg141   2.297       .  S
O140       Mg172   2.281       .  S
Mg141       O147   2.145       .  S
Mg141       O155   2.255       .  S
Mg141       O143   2.346       .  S
C142        O180   1.272       .  A
C142        O148   1.277       .  A
C142       C2517   1.492       .  S
O143        C150   1.279       .  A
H144        C157   1.080       .  S
C145        O159   1.238       .  S
C145        O160   1.271       .  A
C145        H170   1.079       .  S
O146        C169   1.271       .  A
O147       Mg161   2.144       .  S
O148       Mg178   2.328       .  S
C149        O162   1.271       .  A
C149        O154   1.277       .  A
C149       C2646   1.489       .  S
C150        O177   1.274       .  A
C150       C2537   1.492       .  S
Mg151       O158   2.128       .  S
Mg151       O159   2.133       .  S
Mg151       O152   2.343       .  S
Mg151       O153   2.321       .  S
Mg151       O180   2.267       .  S
O153        C157   1.276       .  A
O154       Mg161   2.337       .  S
O155        C174   1.273       .  A
O156        C176   1.277       .  A
O156       Mg172   2.312       .  S
O158       Mg172   2.145       .  S
O158        C169   1.238       .  S
O159       Mg178   2.137       .  S
O160       Mg172   2.297       .  S
Mg161       O177   2.281       .  S
O162       Mg178   2.259       .  S
H163        C168   1.080       .  S
O164       Mg172   2.146       .  S
O164        C167   1.236       .  S
H165        C167   1.079       .  S
H166        C169   1.077       .  S
O171       Mg178   2.314       .  S
C174        O179   1.277       .  A
C174       C2557   1.479       .  S
O175        C176   1.277       .  A
C176       C2497   1.488       .  S
C181        C182   1.542       .  S
C181        C187   1.540   1_556  S
C181        C185   1.515       .  S
C181       C2477   1.538   1_556  S
C182        H189   1.084       .  S
C182        C183   1.370       .  D
C183        C184   1.547       .  S
C183       C2946   1.509       .  S
C184        C188   1.551   1_556  S
C184        C186   1.560       .  S
C184        H190   1.099       .  S
C185        H191   1.087       .  S
C185        C186   1.356       .  D
C186       C2457   1.479       .  S
C187        H192   1.083       .  S
C187        C188   1.371       .  D
C188       C2506   1.516       .  S
C193        C194   1.530       .  S
C193        C199   1.532       .  S
C193        C197   1.555       .  S
C193       C2546   1.560       .  S
C194        H201   1.086       .  S
C194        C195   1.369       .  D
C195        C196   1.553       .  S
C195       C2417   1.510       .  S
C196        C200   1.548       .  S
C196        C198   1.550       .  S
C196        H202   1.108       .  S
C197        H203   1.084       .  S
C197        C198   1.381       .  D
C198       C2397   1.510       .  S
C199        H204   1.086       .  S
C199        C200   1.356       .  D
C200       C2437   1.490       .  S
C205        C206   1.536       .  S
C205        C211   1.537       .  S
C205        C209   1.539   1_565  S
C205       C2317   1.552       .  S
C206        H213   1.085       .  S
C206        C207   1.364       .  D
C207        C208   1.552   1_565  S
C207       C2357   1.506       .  S
C208        C212   1.553   1_545  S
C208        C210   1.550       .  S
C208        H214   1.107       .  S
C209        H215   1.086       .  S
C209        C210   1.376       .  D
C210       C2346   1.510       .  S
C211        H216   1.084       .  S
C211        C212   1.363       .  D
C212       C2386   1.496   1_565  S
C217        C218   1.540       .  S
C217        C223   1.537       .  S
C217        C221   1.531       .  S
C217       C2786   1.549       .  S
C218        H225   1.085       .  S
C218        C219   1.369       .  D
C219        C220   1.552   1_556  S
C219       C2286   1.499       .  S
C220        C224   1.549   1_554  S
C220        C222   1.555       .  S
C220        H226   1.108       .  S
C221        H227   1.086       .  S
C221        C222   1.370   1_556  D
C222       C2257   1.504       .  S
C223        H228   1.083       .  S
C223        C224   1.364       .  D
C224       C2297   1.502       .  S
C229        C230   1.538       .  S
C229        C235   1.538       .  S
C229        C233   1.535       .  S
C229       C2177   1.552       .  S
C230        H237   1.085       .  S
C230        C231   1.365       .  D
C231        C232   1.544       .  S
C231       C2246   1.487       .  S
C232        C236   1.545       .  S
C232        C234   1.551       .  S
C232        H238   1.105       .  S
C233        H239   1.086       .  S
C233        C234   1.376       .  D
C234       C2197   1.510       .  S
C235        H240   1.083       .  S
C235        C236   1.365       .  D
C236       C2217   1.502       .  S
C241        C242   1.544       .  S
C241        C247   1.538       .  S
C241        C245   1.523       .  S
C241       C2137   1.543       .  S
C242        H249   1.082       .  S
C242        C243   1.373       .  D
C243        C244   1.547       .  S
C243       C2746   1.516       .  S
C244        C248   1.544       .  S
C244        C246   1.555       .  S
C244        H250   1.096       .  S
C245        H251   1.086       .  S
C245        C246   1.360       .  D
C246       C2157   1.479       .  S
C247        H252   1.084       .  S
C247        C248   1.367       .  D
C248       C2117   1.505       .  S
C253        C254   1.545       .  S
C253        C259   1.536       .  S
C253        C257   1.532       .  S
C253       C2086   1.552       .  S
C254        H261   1.081       .  S
C254        C255   1.368       .  D
C255        C256   1.536       .  S
C255       C2566   1.503       .  S
C256        C260   1.547       .  S
C256        C258   1.554       .  S
C256        H262   1.092       .  S
C257        H263   1.086       .  S
C257        C258   1.361       .  D
C258       C2057   1.478       .  S
C259        H264   1.085       .  S
C259        C260   1.375       .  D
C260       C2097   1.521       .  S
C265        C266   1.537       .  S
C265        C271   1.541       .  S
C265        C269   1.530       .  S
C265       C1997   1.547       .  S
C266        H273   1.080       .  S
C266        C267   1.365       .  D
C267        C268   1.552       .  S
C267       C1986   1.511       .  S
C268        C272   1.554       .  S
C268        C270   1.552       .  S
C268        H274   1.107       .  S
C269        H275   1.086       .  S
C269        C270   1.370       .  D
C270       C2017   1.499       .  S
C271        H276   1.086       .  S
C271        C272   1.366       .  D
C272       C2037   1.499       .  S
C277        C278   1.539       .  S
C277        C283   1.538   1_655  S
C277        C281   1.535       .  S
C277       C1946   1.551       .  S
C278        H285   1.082       .  S
C278        C279   1.365       .  D
C279        C280   1.552   1_655  S
C279       C2586   1.512       .  S
C280        C284   1.553       .  S
C280        C282   1.550       .  S
C280        H286   1.107       .  S
C281        H287   1.086       .  S
C281        C282   1.373   1_655  D
C282       C1957   1.505       .  S
C283        H288   1.085       .  S
C283        C284   1.365       .  D
C284       C1917   1.494       .  S
O289       Mg291   2.135       .  S
O289       Mg297   2.137       .  S
O289        C324   1.238       .  S
C290        O303   1.239       .  S
C290        O327   1.274       .  A
C290        H329   1.081       .  S
Mg291       O320   2.150       .  S
Mg291       O335   2.354       .  S
Mg291       O331   2.238       .  S
Mg291       O302   2.300       .  S
O292       Mg334   2.141       .  S
O292       Mg317   2.150       .  S
O292        C313   1.238       .  S
O293        C324   1.273       .  A
O293       Mg317   2.303       .  S
C294        O296   1.278       .  A
C294        O308   1.277       .  A
C294       C1877   1.488       .  S
O295        C323   1.271       .  A
O295       Mg297   2.302       .  S
O296       Mg328   2.298       .  S
Mg297       O303   2.147       .  S
Mg297       O311   2.267       .  S
Mg297       O299   2.305       .  S
C298        O336   1.274       .  A
C298        O304   1.280       .  A
C298       C1866   1.496       .  S
O299        C306   1.274       .  A
H300        C313   1.081       .  S
C301        O315   1.239       .  S
C301        O316   1.273       .  A
C301        H326   1.079       .  S
O302        C325   1.271       .  A
O303       Mg317   2.143       .  S
O304       Mg334   2.339       .  S
C305        O318   1.274       .  A
C305        O310   1.276       .  A
C305       C1926   1.492       .  S
C306        O333   1.273       .  A
C306       C1906   1.483       .  S
Mg307       O314   2.144       .  S
Mg307       O315   2.147       .  S
Mg307       O308   2.314       .  S
Mg307       O309   2.302       .  S
Mg307       O336   2.277       .  S
O309        C313   1.272       .  A
O310       Mg317   2.314       .  S
O311        C330   1.272       .  A
O312        C332   1.281       .  A
O312       Mg328   2.346       .  S
O314       Mg328   2.149       .  S
O314        C325   1.238       .  S
O315       Mg334   2.139       .  S
O316       Mg328   2.301       .  S
Mg317       O333   2.285       .  S
O318       Mg334   2.276       .  S
H319        C324   1.079       .  S
O320       Mg328   2.156       .  S
O320        C323   1.237       .  S
H321        C323   1.080       .  S
H322        C325   1.082       .  S
O327       Mg334   2.314       .  S
C330        O335   1.280       .  A
C330       C2046   1.499       .  S
O331        C332   1.272       .  A
C332       C2406   1.485       .  S
C337        C338   1.528       .  S
C337        C343   1.532       .  S
C337        C341   1.557       .  S
C337       C1797   1.558       .  S
C338        H345   1.087       .  S
C338        C339   1.365       .  D
C339        C340   1.558   1_556  S
C339       C1826   1.507   1_556  S
C340        C344   1.558   1_554  S
C340        C342   1.551       .  S
C340        H346   1.109       .  S
C341        H347   1.082       .  S
C341        C342   1.378   1_556  D
C342       C1857   1.516       .  S
C343        H348   1.086       .  S
C343        C344   1.361       .  D
C344       C1846   1.502       .  S
C349        C350   1.538       .  S
C349        C355   1.540       .  S
C349        C353   1.540       .  S
C349       C1777   1.551       .  S
C350        H357   1.083       .  S
C350        C351   1.360       .  D
C351        C352   1.558       .  S
C351       C1766   1.501       .  S
C352        C356   1.549       .  S
C352        C354   1.554       .  S
C352        H358   1.105       .  S
C353        H359   1.084       .  S
C353        C354   1.377       .  D
C354       C2726   1.519       .  S
C355        H360   1.085       .  S
C355        C356   1.364       .  D
C356       C1737   1.507       .  S
O361       Mg363   2.146       .  S
O361       Mg369   2.137       .  S
O361        C396   1.238       .  S
C362        O375   1.238       .  S
C362        O399   1.272       .  A
C362        H401   1.079       .  S
Mg363       O392   2.144       .  S
Mg363       O407   2.293       .  S
Mg363       O403   2.251       .  S
Mg363       O374   2.290       .  S
O364       Mg406   2.151       .  S
O364       Mg389   2.130       .  S
O364        C385   1.239       .  S
O365        C396   1.273       .  A
O365       Mg389   2.307       .  S
C366        O368   1.275       .  A
C366        O380   1.279       .  A
C366       C2337   1.481       .  S
O367        C395   1.273       .  A
O367       Mg369   2.310       .  S
O368       Mg400   2.270       .  S
Mg369       O375   2.130       .  S
Mg369       O383   2.257       .  S
Mg369       O371   2.312       .  S
C370        O408   1.272       .  A
C370        O376   1.275       .  A
C370       C1726   1.501       .  S
O371        C378   1.275       .  A
H372        C385   1.077       .  S
C373        O387   1.236       .  S
C373        O388   1.269       .  A
C373        H398   1.080       .  S
O374        C397   1.270       .  A
O375       Mg389   2.144       .  S
O376       Mg406   2.306       .  S
C377        O390   1.273       .  A
C377        O382   1.274       .  A
C377       C1786   1.473       .  S
C378        O405   1.271       .  A
C378       C2206   1.479       .  S
Mg379       O386   2.127       .  S
Mg379       O387   2.150       .  S
Mg379       O380   2.324       .  S
Mg379       O381   2.290       .  S
Mg379       O408   2.259       .  S
O381        C385   1.271       .  A
O382       Mg389   2.303       .  S
O383        C402   1.270       .  A
O384        C404   1.277       .  A
O384       Mg400   2.318       .  S
O386       Mg400   2.147       .  S
O386        C397   1.237       .  S
O387       Mg406   2.128       .  S
O388       Mg400   2.289       .  S
Mg389       O405   2.257       .  S
O390       Mg406   2.275       .  S
H391        C396   1.079       .  S
O392       Mg400   2.142       .  S
O392        C395   1.238       .  S
H393        C395   1.076       .  S
H394        C397   1.079       .  S
O399       Mg406   2.299       .  S
C402        O407   1.272       .  A
C402       C1697   1.485       .  S
O403        C404   1.271       .  A
C404       C1686   1.480       .  S
C409        C410   1.528       .  S
C409        C415   1.532       .  S
C409        C413   1.550       .  S
C409       C2766   1.552       .  S
C410        H417   1.086       .  S
C410        C411   1.368       .  D
C411        C412   1.549   1_655  S
C411       C1637   1.507   1_655  S
C412        C416   1.546   1_455  S
C412        C414   1.547       .  S
C412        H418   1.106       .  S
C413        H419   1.082       .  S
C413        C414   1.377   1_655  D
C414       C1677   1.501       .  S
C415        H420   1.087       .  S
C415        C416   1.357       .  D
C416       C1657   1.486       .  S
O421       Mg423   2.124       .  S
O421       Mg429   2.142       .  S
O421        C456   1.237       .  S
C422        O435   1.237       .  S
C422        O459   1.269       .  A
C422        H461   1.081       .  S
Mg423       O452   2.158       .  S
Mg423       O467   2.345       .  S
Mg423       O463   2.254       .  S
Mg423       O434   2.298       .  S
O424       Mg466   2.153       .  S
O424       Mg449   2.129       .  S
O424        C445   1.238       .  S
O425        C456   1.270       .  A
O425       Mg449   2.290       .  S
C426        O428   1.277       .  A
C426        O440   1.275       .  A
C426       C2106   1.480       .  S
O427        C455   1.273       .  A
O427       Mg429   2.300       .  S
O428       Mg460   2.298       .  S
Mg429       O435   2.125       .  S
Mg429       O443   2.254       .  S
Mg429       O431   2.310       .  S
C430        O468   1.273       .  A
C430        O436   1.274       .  A
C430       C2126   1.484       .  S
O431        C438   1.276       .  A
H432        C445   1.076       .  S
C433        O447   1.238       .  S
C433        O448   1.272       .  A
C433        H458   1.081       .  S
O434        C457   1.271       .  A
O435       Mg449   2.152       .  S
O436       Mg466   2.298       .  S
C437        O450   1.272       .  A
C437        O442   1.275       .  A
C437       C1597   1.480       .  S
C438        O465   1.273       .  A
C438       C1577   1.483       .  S
Mg439       O446   2.144       .  S
Mg439       O447   2.148       .  S
Mg439       O440   2.302       .  S
Mg439       O441   2.294       .  S
Mg439       O468   2.274       .  S
O441        C445   1.271       .  A
O442       Mg449   2.300       .  S
O443        C462   1.271       .  A
O444        C464   1.278       .  A
O444       Mg460   2.328       .  S
O446       Mg460   2.151       .  S
O446        C457   1.237       .  S
O447       Mg466   2.133       .  S
O448       Mg460   2.302       .  S
Mg449       O465   2.262       .  S
O450       Mg466   2.259       .  S
H451        C456   1.081       .  S
O452       Mg460   2.151       .  S
O452        C455   1.239       .  S
H453        C455   1.076       .  S
H454        C457   1.081       .  S
O459       Mg466   2.289       .  S
C462        O467   1.281       .  A
C462       C2266   1.494       .  S
O463        C464   1.272       .  A
C464       C1617   1.507       .  S
C469        C470   1.540   1_545  S
C469        C475   1.537       .  S
C469        C473   1.546       .  S
C469       C1557   1.559       .  S
C470        H477   1.082       .  S
C470        C471   1.363       .  D
C471        C472   1.546   1_565  S
C471       C2526   1.490       .  S
C472        C476   1.542       .  S
C472        C474   1.547       .  S
C472        H478   1.106       .  S
C473        H479   1.085       .  S
C473        C474   1.380       .  D
C474       C1546   1.518       .  S
C475        H480   1.085       .  S
C475        C476   1.364       .  D
C476       C1586   1.496       .  S
C481        C482   1.541       .  S
C481        C487   1.539       .  S
C481        C485   1.534   1_455  S
C481       C1517   1.549       .  S
C482        H489   1.084       .  S
C482        C483   1.363   1_455  D
C483        C484   1.544       .  S
C483       C1497   1.493       .  S
C484        C488   1.548       .  S
C484        C486   1.547       .  S
C484        H490   1.108       .  S
C485        H491   1.086       .  S
C485        C486   1.370       .  D
C486       C1606   1.495       .  S
C487        H492   1.084       .  S
C487        C488   1.369   1_455  D
C488       C1477   1.505       .  S
O493       Mg495   2.149       .  S
O493       Mg501   2.138       .  S
O493        C528   1.239       .  S
C494        O507   1.237       .  S
C494        O531   1.271       .  A
C494        H533   1.080       .  S
Mg495       O524   2.143       .  S
Mg495       O539   2.321       .  S
Mg495       O535   2.274       .  S
Mg495       O506   2.302       .  S
O496       Mg538   2.149       .  S
O496       Mg521   2.141       .  S
O496        C517   1.238       .  S
O497        C528   1.274       .  A
O497       Mg521   2.316       .  S
C498        O500   1.276       .  A
C498        O512   1.274       .  A
C498       C1386   1.497       .  S
O499        C527   1.273       .  A
O499       Mg501   2.307       .  S
O500       Mg532   2.298       .  S
Mg501       O507   2.136       .  S
Mg501       O515   2.263       .  S
Mg501       O503   2.310       .  S
C502        O540   1.269       .  A
C502        O508   1.276       .  A
C502       C1526   1.470       .  S
O503        C510   1.275       .  A
H504        C517   1.080       .  S
C505        O519   1.237       .  S
C505        O520   1.270       .  A
C505        H530   1.081       .  S
O506        C529   1.271       .  A
O507       Mg521   2.137       .  S
O508       Mg538   2.311       .  S
C509        O522   1.268       .  A
C509        O514   1.277       .  A
C509       C1397   1.516       .  S
C510        O537   1.274       .  A
C510       C1446   1.497       .  S
Mg511       O518   2.121       .  S
Mg511       O519   2.148       .  S
Mg511       O512   2.306       .  S
Mg511       O513   2.298       .  S
Mg511       O540   2.237       .  S
O513        C517   1.271       .  A
O514       Mg521   2.338       .  S
O515        C534   1.271       .  A
O516        C536   1.275       .  A
O516       Mg532   2.298       .  S
O518       Mg532   2.143       .  S
O518        C529   1.237       .  S
O519       Mg538   2.131       .  S
O520       Mg532   2.290       .  S
Mg521       O537   2.285       .  S
O522       Mg538   2.250       .  S
H523        C528   1.081       .  S
O524       Mg532   2.148       .  S
O524        C527   1.238       .  S
H525        C527   1.080       .  S
H526        C529   1.081       .  S
O531       Mg538   2.297       .  S
C534        O539   1.276       .  A
C534       C1426   1.481       .  S
O535        C536   1.272       .  A
C536       C1466   1.493       .  S
C541        C542   1.507       .  S
C541        C547   1.533   1_556  S
C541        C545   1.561       .  S
C541       C1366   1.545       .  S
C542        H549   1.088       .  S
C542        C543   1.352       .  D
C543        C544   1.561   1_556  S
C543       C1706   1.479       .  S
C544        C548   1.549       .  S
C544        C546   1.538       .  S
C544        H550   1.095       .  S
C545        H551   1.075       .  S
C545        C546   1.380   1_556  D
C546       C1337   1.518       .  S
C547        H552   1.085       .  S
C547        C548   1.367       .  D
C548       C1457   1.514       .  S
C553        C554   1.538       .  S
C553        C559   1.540   1_545  S
C553        C557   1.541   1_545  S
C553       C1297   1.552       .  S
C554        H561   1.084       .  S
C554        C555   1.361       .  D
C555        C556   1.547       .  S
C555       C1437   1.501       .  S
C556        C560   1.550   1_545  S
C556        C558   1.554   1_545  S
C556        H562   1.105       .  S
C557        H563   1.085       .  S
C557        C558   1.379       .  D
C558       C1326   1.522       .  S
C559        H564   1.083       .  S
C559        C560   1.362       .  D
C560       C1886   1.492       .  S
O565       Mg567   2.144   1_455  S
O565       Mg573   2.153       .  S
O565        C600   1.238       .  S
C566        O579   1.239       .  S
C566        O603   1.272   1_455  A
C566        H605   1.079       .  S
Mg567       O596   2.149       .  S
Mg567       O611   2.286       .  S
Mg567       O607   2.265       .  S
Mg567       O578   2.297   1_545  S
O568       Mg610   2.135   1_455  S
O568       Mg593   2.138   1_565  S
O568        C589   1.239       .  S
O569        C600   1.271       .  A
O569       Mg593   2.301       .  S
C570        O572   1.277       .  A
C570        O584   1.277       .  A
C570       C2606   1.494       .  S
O571        C599   1.274       .  A
O571       Mg573   2.306   1_655  S
O572       Mg604   2.298   1_565  S
Mg573       O579   2.128       .  S
Mg573       O587   2.274       .  S
Mg573       O575   2.340       .  S
C574        O612   1.269       .  A
C574        O580   1.275       .  A
C574       C1257   1.482       .  S
O575        C582   1.281       .  A
H576        C589   1.081       .  S
C577        O591   1.237       .  S
C577        O592   1.272   1_565  A
C577        H602   1.080       .  S
O578        C601   1.271       .  A
O579       Mg593   2.145       .  S
O580       Mg610   2.314       .  S
C581        O594   1.274       .  A
C581        O586   1.280   1_565  A
C581       C2366   1.488       .  S
C582        O609   1.276       .  A
C582       C1277   1.497       .  S
Mg583       O590   2.129       .  S
Mg583       O591   2.133       .  S
Mg583       O584   2.326       .  S
Mg583       O585   2.311   1_655  S
Mg583       O612   2.247       .  S
O585        C589   1.274       .  A
O586       Mg593   2.344       .  S
O587        C606   1.273       .  A
O588        C608   1.280       .  A
O588       Mg604   2.342       .  S
O590       Mg604   2.144   1_565  S
O590        C601   1.238       .  S
O591       Mg610   2.156       .  S
O592       Mg604   2.307       .  S
Mg593       O609   2.279       .  S
O594       Mg610   2.273   1_455  S
H595        C600   1.082       .  S
O596       Mg604   2.150       .  S
O596        C599   1.240       .  S
H597        C599   1.080       .  S
H598        C601   1.080       .  S
O603       Mg610   2.297   1_545  S
C606        O611   1.273   1_455  A
C606       C1506   1.487       .  S
O607        C608   1.272       .  A
C608       C1566   1.489       .  S
O613       Mg615   2.151       .  S
O613       Mg621   2.143   1_556  S
O613        C648   1.238       .  S
C614        O627   1.237   1_545  S
C614        O651   1.273   1_455  A
C614        H653   1.079       .  S
Mg615       O644   2.131   1_565  S
Mg615       O659   2.321       .  S
Mg615       O655   2.283       .  S
Mg615       O626   2.306       .  S
O616       Mg658   2.133   1_565  S
O616       Mg641   2.153       .  S
O616        C637   1.239       .  S
O617        C648   1.273   1_654  A
O617       Mg641   2.308       .  S
C618        O620   1.271   1_655  A
C618        O632   1.277       .  A
C618       C1666   1.486       .  S
O619        C647   1.272       .  A
O619       Mg621   2.304   1_545  S
O620       Mg652   2.257       .  S
Mg621       O627   2.157       .  S
Mg621       O635   2.295       .  S
Mg621       O623   2.314       .  S
C622        O660   1.273   1_554  A
C622        O628   1.274       .  A
C622       C2306   1.487       .  S
O623        C630   1.277       .  A
H624        C637   1.080       .  S
C625        O639   1.238       .  S
C625        O640   1.272   1_654  A
C625        H650   1.080       .  S
O626        C649   1.273   1_455  A
O627       Mg641   2.147   1_455  S
O628       Mg658   2.307       .  S
C629        O642   1.266   1_565  A
C629        O634   1.280       .  A
C629       C1537   1.505       .  S
C630        O657   1.274   1_455  A
C630       C1966   1.486       .  S
Mg631       O638   2.142       .  S
Mg631       O639   2.142   1_556  S
Mg631       O632   2.324       .  S
Mg631       O633   2.309   1_545  S
Mg631       O660   2.276       .  S
O633        C637   1.273   1_556  A
O634       Mg641   2.351       .  S
O635        C654   1.275       .  A
O636        C656   1.275       .  A
O636       Mg652   2.315       .  S
O638       Mg652   2.134   1_655  S
O638        C649   1.238   1_545  S
O639       Mg658   2.130       .  S
O640       Mg652   2.305       .  S
Mg641       O657   2.277       .  S
O642       Mg658   2.247       .  S
H643        C648   1.081       .  S
O644       Mg652   2.138       .  S
O644        C647   1.237   1_556  S
H645        C647   1.079       .  S
H646        C649   1.080       .  S
O651       Mg658   2.312       .  S
C654        O659   1.276   1_554  A
C654       C1837   1.506       .  S
O655        C656   1.273   1_565  A
C656       C2377   1.497       .  S
O661       Mg663   2.146       .  S
O661       Mg669   2.152       .  S
O661        C696   1.238       .  S
C662        O675   1.239       .  S
C662        O699   1.274   1_545  A
C662        H701   1.082       .  S
Mg663       O692   2.158   1_545  S
Mg663       O707   2.326       .  S
Mg663       O703   2.280       .  S
Mg663       O674   2.293       .  S
O664       Mg706   2.147   1_545  S
O664       Mg689   2.156       .  S
O664        C685   1.239       .  S
O665        C696   1.272       .  A
O665       Mg689   2.298       .  S
C666        O668   1.275       .  A
C666        O680   1.277       .  A
C666       C2446   1.485       .  S
O667        C695   1.272   1_545  A
O667       Mg669   2.298       .  S
O668       Mg700   2.277       .  S
Mg669       O675   2.145       .  S
Mg669       O683   2.271       .  S
Mg669       O671   2.351       .  S
C670        O708   1.275       .  A
C670        O676   1.279       .  A
C670       C2626   1.495       .  S
O671        C678   1.281       .  A
H672        C685   1.080       .  S
C673        O687   1.239       .  S
C673        O688   1.273       .  A
C673        H698   1.077       .  S
O674        C697   1.271   1_545  A
O675       Mg689   2.142       .  S
O676       Mg706   2.346       .  S
C677        O690   1.272   1_545  A
C677        O682   1.276       .  A
C677       C2826   1.471       .  S
C678        O705   1.275       .  A
C678       C1757   1.499       .  S
Mg679       O686   2.142       .  S
Mg679       O687   2.137       .  S
Mg679       O680   2.315       .  S
Mg679       O681   2.306       .  S
Mg679       O708   2.286       .  S
O681        C685   1.273   1_565  A
O682       Mg689   2.318       .  S
O683        C702   1.275       .  A
O684        C704   1.279       .  A
O684       Mg700   2.336       .  S
O686       Mg700   2.150       .  S
O686        C697   1.237       .  S
O687       Mg706   2.137       .  S
O688       Mg700   2.304       .  S
Mg689       O705   2.289       .  S
O690       Mg706   2.255       .  S
H691        C696   1.077       .  S
O692       Mg700   2.141       .  S
O692        C695   1.238       .  S
H693        C695   1.080       .  S
H694        C697   1.082       .  S
O699       Mg706   2.308       .  S
C702        O707   1.279       .  A
C702       C1246   1.496       .  S
O703        C704   1.275   1_545  A
C704       C1317   1.508       .  S
C709        C710   1.543       .  S
C709        C715   1.525       .  S
C709        C713   1.550       .  S
C709       C1717   1.561       .  S
C710        H717   1.086       .  S
C710        C711   1.369       .  D
C711        C712   1.552       .  S
C711       C1237   1.506       .  S
C712        C716   1.556       .  S
C712        C714   1.550       .  S
C712        H718   1.109       .  S
C713        H719   1.079       .  S
C713        C714   1.374       .  D
C714       C1406   1.511       .  S
C715        H720   1.087       .  S
C715        C716   1.361       .  D
C716       C1286   1.501       .  S
O721       Mg723   2.156       .  S
O721       Mg729   2.159       .  S
O721        C756   1.237       .  S
C722        O735   1.239       .  S
C722        O759   1.273       .  A
C722        H761   1.078       .  S
Mg723       O752   2.147       .  S
Mg723       O767   2.312       .  S
Mg723       O763   2.283       .  S
Mg723       O734   2.294   1_565  S
O724       Mg766   2.140       .  S
O724       Mg749   2.153       .  S
O724        C745   1.240   1_554  S
O725        C756   1.271       .  A
O725       Mg749   2.299   1_566  S
C726        O728   1.275       .  A
C726        O740   1.277       .  A
C726       C2277   1.487       .  S
O727        C755   1.270       .  A
O727       Mg729   2.298       .  S
O728       Mg760   2.285   1_545  S
Mg729       O735   2.142   1_556  S
Mg729       O743   2.283       .  S
Mg729       O731   2.344       .  S
C730        O768   1.272       .  A
C730        O736   1.275       .  A
C730       C1217   1.478       .  S
O731        C738   1.280   1_556  A
H732        C745   1.080       .  S
C733        O747   1.237       .  S
C733        O748   1.270   1_544  A
C733        H758   1.079       .  S
O734        C757   1.272       .  A
O735       Mg749   2.154   1_565  S
O736       Mg766   2.306       .  S
C737        O750   1.269       .  A
C737        O742   1.277       .  A
C737       C1306   1.482       .  S
C738        O765   1.274       .  A
C738       C1817   1.512       .  S
Mg739       O746   2.123       .  S
Mg739       O747   2.138   1_556  S
Mg739       O740   2.314       .  S
Mg739       O741   2.312       .  S
Mg739       O768   2.272   1_556  S
O741        C745   1.275       .  A
O742       Mg749   2.330       .  S
O743        C762   1.276       .  A
O744        C764   1.275       .  A
O744       Mg760   2.291       .  S
O746       Mg760   2.150   1_545  S
O746        C757   1.239       .  S
O747       Mg766   2.122       .  S
O748       Mg760   2.291       .  S
Mg749       O765   2.278   1_545  S
O750       Mg766   2.247       .  S
H751        C756   1.079       .  S
O752       Mg760   2.138       .  S
O752        C755   1.236       .  S
H753        C755   1.081       .  S
H754        C757   1.078       .  S
O759       Mg766   2.307   1_565  S
C762        O767   1.277       .  A
C762       C1197   1.479       .  S
O763        C764   1.275       .  A
C764       C2806   1.481       .  S
C769        C770   1.538       .  S
C769        C775   1.516       .  S
C769        C773   1.562       .  S
C769       C1226   1.556       .  S
C770        H777   1.086       .  S
C770        C771   1.364       .  D
C771        C772   1.548       .  S
C771       C1417   1.508       .  S
C772        C776   1.563       .  S
C772        C774   1.547       .  S
C772        H778   1.100       .  S
C773        H779   1.073       .  S
C773        C774   1.385       .  D
C774       C1177   1.529       .  S
C775        H780   1.088       .  S
C775        C776   1.350       .  D
C776       C1626   1.489       .  S
O781       Mg783   2.135       .  S
O781       Mg789   2.139       .  S
O781        C816   1.238       .  S
C782        O795   1.237       .  S
C782        O819   1.270   1_556  A
C782        H821   1.081       .  S
Mg783       O812   2.145       .  S
Mg783       O827   2.312       .  S
Mg783       O823   2.255       .  S
Mg783       O794   2.296   1_556  S
O784       Mg826   2.152       .  S
O784       Mg809   2.135       .  S
O784        C805   1.238       .  S
O785        C816   1.272   1_554  A
O785       Mg809   2.303       .  S
C786        O788   1.272   1_554  A
C786        O800   1.276       .  A
C786       C2486   1.477       .  S
O787        C815   1.271       .  A
O787       Mg789   2.297       .  S
O788       Mg820   2.253       .  S
Mg789       O795   2.140       .  S
Mg789       O803   2.268       .  S
Mg789       O791   2.310       .  S
C790        O828   1.272       .  A
C790        O796   1.276       .  A
C790       C2066   1.481       .  S
O791        C798   1.275       .  A
H792        C805   1.082       .  S
C793        O807   1.238       .  S
C793        O808   1.272   1_554  A
C793        H818   1.078       .  S
O794        C817   1.271       .  A
O795       Mg809   2.141   1_556  S
O796       Mg826   2.309       .  S
C797        O810   1.274       .  A
C797        O802   1.275       .  A
C797       C1186   1.482       .  S
C798        O825   1.271   1_556  A
C798       C1357   1.484       .  S
Mg799       O806   2.135       .  S
Mg799       O807   2.150       .  S
Mg799       O800   2.311       .  S
Mg799       O801   2.298       .  S
Mg799       O828   2.254       .  S
O801        C805   1.272       .  A
O802       Mg809   2.311       .  S
O803        C822   1.272       .  A
O804        C824   1.277       .  A
O804       Mg820   2.326       .  S
O806       Mg820   2.147   1_554  S
O806        C817   1.237       .  S
O807       Mg826   2.144       .  S
O808       Mg820   2.302       .  S
Mg809       O825   2.255       .  S
O810       Mg826   2.279       .  S
H811        C816   1.078       .  S
O812       Mg820   2.127       .  S
O812        C815   1.238       .  S
H813        C815   1.081       .  S
H814        C817   1.081       .  S
O819       Mg826   2.298       .  S
C822        O827   1.275       .  A
C822       C2226   1.475       .  S
O823        C824   1.272       .  A
C824       C1157   1.488       .  S
O829       Mg831   2.148       .  S
O829       Mg837   2.137       .  S
O829        C864   1.237       .  S
C830        O843   1.238       .  S
C830        O867   1.273       .  A
C830        H869   1.080       .  S
Mg831       O860   2.149       .  S
Mg831       O875   2.317       .  S
Mg831       O871   2.276       .  S
Mg831       O842   2.299   1_455  S
O832       Mg874   2.135       .  S
O832       Mg857   2.145       .  S
O832        C853   1.239       .  S
O833        C864   1.272   1_655  A
O833       Mg857   2.306       .  S
C834        O836   1.272       .  A
C834        O848   1.276       .  A
C834       C2666   1.496       .  S
O835        C863   1.273       .  A
O835       Mg837   2.304       .  S
O836       Mg868   2.273       .  S
Mg837       O843   2.144       .  S
Mg837       O851   2.268       .  S
Mg837       O839   2.315       .  S
C838        O876   1.271       .  A
C838        O844   1.273       .  A
C838       C2166   1.488       .  S
O839        C846   1.276       .  A
H840        C853   1.078       .  S
C841        O855   1.238       .  S
C841        O856   1.273   1_655  A
C841        H866   1.076       .  S
O842        C865   1.271       .  A
O843       Mg857   2.142   1_455  S
O844       Mg874   2.302       .  S
C845        O858   1.270       .  A
C845        O850   1.277       .  A
C845       C1486   1.494       .  S
C846        O873   1.273       .  A
C846       C1137   1.492       .  S
Mg847       O854   2.139       .  S
Mg847       O855   2.134       .  S
Mg847       O848   2.321       .  S
Mg847       O849   2.313       .  S
Mg847       O876   2.269       .  S
O849        C853   1.274       .  A
O850       Mg857   2.327       .  S
O851        C870   1.272       .  A
O852        C872   1.276       .  A
O852       Mg868   2.315   1_455  S
O854       Mg868   2.140       .  S
O854        C865   1.238       .  S
O855       Mg874   2.147       .  S
O856       Mg868   2.309   1_455  S
Mg857       O873   2.277   1_655  S
O858       Mg874   2.262       .  S
H859        C864   1.077       .  S
O860       Mg868   2.141   1_455  S
O860        C863   1.238       .  S
H861        C863   1.078       .  S
H862        C865   1.080       .  S
O867       Mg874   2.307   1_455  S
C870        O875   1.276       .  A
C870       C2026   1.490       .  S
O871        C872   1.274       .  A
C872       C1117   1.481       .  S
O877       Mg879   2.144       .  S
O877       Mg885   2.134   1_655  S
O877        C912   1.239       .  S
C878        O891   1.238       .  S
C878        O915   1.273       .  A
C878        H917   1.081       .  S
Mg879       O908   2.153       .  S
Mg879       O923   2.327       .  S
Mg879       O919   2.280       .  S
Mg879       O890   2.299   1_556  S
O880       Mg922   2.143       .  S
O880       Mg905   2.137       .  S
O880        C901   1.239       .  S
O881        C912   1.274   1_554  A
O881       Mg905   2.314   1_655  S
C882        O884   1.270       .  A
C882        O896   1.277       .  A
C882       C1937   1.495       .  S
O883        C911   1.272   1_455  A
O883       Mg885   2.305       .  S
O884       Mg916   2.259       .  S
Mg885       O891   2.140       .  S
Mg885       O899   2.263   1_455  S
Mg885       O887   2.305       .  S
C886        O924   1.273       .  A
C886        O892   1.275       .  A
C886       C1097   1.480       .  S
O887        C894   1.274       .  A
H888        C901   1.076       .  S
C889        O903   1.237       .  S
C889        O904   1.270       .  A
C889        H914   1.082       .  S
O890        C913   1.271       .  A
O891       Mg905   2.136   1_556  S
O892       Mg922   2.299       .  S
C893        O906   1.271       .  A
C893        O898   1.277       .  A
C893       C1346   1.475       .  S
C894        O921   1.272       .  A
C894       C1646   1.490       .  S
Mg895       O902   2.135       .  S
Mg895       O903   2.139   1_655  S
Mg895       O896   2.326       .  S
Mg895       O897   2.302       .  S
Mg895       O924   2.275   1_655  S
O897        C901   1.273   1_655  A
O898       Mg905   2.322       .  S
O899        C918   1.271       .  A
O900        C920   1.271       .  A
O900       Mg916   2.274   1_556  S
O902       Mg916   2.139       .  S
O902        C913   1.237       .  S
O903       Mg922   2.123       .  S
O904       Mg916   2.293   1_455  S
Mg905       O921   2.274   1_554  S
O906       Mg922   2.264       .  S
H907        C912   1.082       .  S
O908       Mg916   2.141   1_556  S
O908        C911   1.238       .  S
H909        C911   1.078       .  S
H910        C913   1.079       .  S
O915       Mg922   2.304   1_556  S
C918        O923   1.278       .  A
C918       C2686   1.491       .  S
O919        C920   1.274       .  A
C920       C2466   1.472       .  S
C925        C926   1.541       .  S
C925        C931   1.537       .  S
C925        C929   1.542       .  S
C925       C1897   1.556       .  S
C926        H933   1.083       .  S
C926        C927   1.363       .  D
C927        C928   1.542       .  S
C927       C1146   1.500       .  S
C928        C932   1.546       .  S
C928        C930   1.550       .  S
C928        H934   1.105       .  S
C929        H935   1.085       .  S
C929        C930   1.380       .  D
C930       C1377   1.517       .  S
C931        H936   1.085       .  S
C931        C932   1.363       .  D
C932       C1106   1.487       .  S
O937       Mg939   2.145       .  S
O937       Mg945   2.140       .  S
O937        C972   1.239       .  S
C938        O951   1.237       .  S
C938        O975   1.271       .  A
C938        H977   1.081       .  S
Mg939       O968   2.143       .  S
Mg939       O983   2.299       .  S
Mg939       O979   2.250       .  S
Mg939       O950   2.293       .  S
O940       Mg982   2.147       .  S
O940       Mg965   2.131       .  S
O940        C961   1.239       .  S
O941        C972   1.273       .  A
O941       Mg965   2.308       .  S
C942        O944   1.274       .  A
C942        O956   1.275       .  A
C942       C2146   1.476       .  S
O943        C971   1.273       .  A
O943       Mg945   2.306       .  S
O944       Mg976   2.274       .  S
Mg945       O951   2.145       .  S
Mg945       O959   2.276       .  S
Mg945       O947   2.310       .  S
C946        O984   1.271       .  A
C946        O952   1.278       .  A
C946       C2077   1.482       .  S
O947        C954   1.276       .  A
H948        C961   1.080       .  S
C949        O963   1.237       .  S
C949        O964   1.272       .  A
C949        H974   1.080       .  S
O950        C973   1.270       .  A
O951       Mg965   2.147       .  S
O952       Mg982   2.334       .  S
C953        O966   1.276       .  A
C953        O958   1.280       .  A
C953       C2426   1.497       .  S
C954        O981   1.273       .  A
C954       C2006   1.480       .  S
Mg955       O962   2.139       .  S
Mg955       O963   2.145       .  S
Mg955       O956   2.310       .  S
Mg955       O957   2.295       .  S
Mg955       O984   2.242       .  S
O957        C961   1.272       .  A
O958       Mg965   2.339       .  S
O959        C978   1.273       .  A
O960        C980   1.281       .  A
O960       Mg976   2.356       .  S
O962       Mg976   2.149       .  S
O962        C973   1.236       .  S
O963       Mg982   2.150       .  S
O964       Mg976   2.306       .  S
Mg965       O981   2.257       .  S
O966       Mg982   2.284       .  S
H967        C972   1.080       .  S
O968       Mg976   2.137       .  S
O968        C971   1.239       .  S
H969        C971   1.078       .  S
H970        C973   1.081       .  S
O975       Mg982   2.299       .  S
C978        O983   1.272       .  A
C978       C2237   1.489       .  S
O979        C980   1.271       .  A
C980       C1746   1.492       .  S
C985        C986   1.538   1_655  S
C985        C991   1.538       .  S
C985        C989   1.538       .  S
C985       C1266   1.549       .  S
C986        H993   1.084       .  S
C986        C987   1.367       .  D
C987        C988   1.548   1_455  S
C987       C1077   1.501       .  S
C988        C992   1.543       .  S
C988        C990   1.550       .  S
C988        H994   1.108       .  S
C989        H995   1.086       .  S
C989        C990   1.374       .  D
C990       C1126   1.504       .  S
C991        H996   1.084       .  S
C991        C992   1.361       .  D
C992       C2966   1.489       .  S
O997       Mg999   2.141       .  S
O997      Mg1005   2.147       .  S
O997       C1032   1.239       .  S
C998       O1011   1.237       .  S
C998       O1035   1.271       .  A
C998       H1037   1.076       .  S
Mg999      O1028   2.140       .  S
Mg999      O1043   2.320       .  S
Mg999      O1039   2.277       .  S
Mg999      O1010   2.309       .  S
O1000     Mg1042   2.148       .  S
O1000     Mg1025   2.148       .  S
O1000      C1021   1.238       .  S
O1001      C1032   1.273       .  A
O1001     Mg1025   2.303       .  S
C1002      O1004   1.271       .  A
C1002      O1016   1.274       .  A
C1002      C1057   1.491       .  S
O1003      C1031   1.272       .  A
O1003     Mg1005   2.299       .  S
O1004     Mg1036   2.267       .  S
Mg1005     O1011   2.137       .  S
Mg1005     O1019   2.265       .  S
Mg1005     O1007   2.318       .  S
C1006      O1044   1.269       .  A
C1006      O1012   1.278       .  A
C1006      C2186   1.478       .  S
O1007      C1014   1.276       .  A
H1008      C1021   1.080       .  S
C1009      O1023   1.238       .  S
C1009      O1024   1.273       .  A
C1009      H1034   1.081       .  S
O1010      C1033   1.274       .  A
O1011     Mg1025   2.138       .  S
O1012     Mg1042   2.337       .  S
C1013      O1026   1.274       .  A
C1013      O1018   1.278       .  A
C1013      C1977   1.481       .  S
C1014      O1041   1.273       .  A
C1014      C1086   1.476       .  S
Mg1015     O1022   2.141       .  S
Mg1015     O1023   2.137       .  S
Mg1015     O1016   2.317       .  S
Mg1015     O1017   2.305       .  S
Mg1015     O1044   2.244       .  S
O1017      C1021   1.272       .  A
O1018     Mg1025   2.328       .  S
O1019      C1038   1.273       .  A
O1020      C1040   1.276       .  A
O1020     Mg1036   2.317       .  S
O1022     Mg1036   2.135       .  S
O1022      C1033   1.239       .  S
O1023     Mg1042   2.145       .  S
O1024     Mg1036   2.310       .  S
Mg1025     O1041   2.270       .  S
O1026     Mg1042   2.267       .  S
H1027      C1032   1.081       .  S
O1028     Mg1036   2.134       .  S
O1028      C1031   1.238       .  S
H1029      C1031   1.082       .  S
H1030      C1033   1.076       .  S
O1035     Mg1042   2.298       .  S
C1038      O1043   1.277       .  A
C1038      C2326   1.485       .  S
O1039      C1040   1.274       .  A
C1040      C1806   1.490       .  S
C1045      C1046   1.529       .  S
C1045      C1051   1.536       .  S
C1045      C1049   1.559       .  S
C1045      C1066   1.564       .  S
C1046      H1053   1.087       .  S
C1046      C1047   1.357       .  D
C1047      C1048   1.551       .  S
C1047      C1206   1.492       .  S
C1048      C1052   1.552       .  S
C1048      C1050   1.548       .  S
C1048      H1054   1.109       .  S
C1049      H1055   1.079       .  S
C1049      C1050   1.378       .  D
C1050      C2906   1.514       .  S
C1051      H1056   1.086       .  S
C1051      C1052   1.369       .  D
C1052      C1166   1.508       .  S
C1057      C1058   1.418       .  A
C1057      C1062   1.418       .  A
C1058      C1059   1.409       .  A
C1058     Br1070   1.934       .  S
C1059      C1060   1.407       .  A
C1059     Br1074   1.931       .  S
C1060      C1063   1.490       .  S
C1060      C1061   1.409       .  A
C1061      C1062   1.410       .  A
C1061     Br1069   1.931       .  S
C1062     Br1073   1.933       .  S
C1063      C1064   1.405       .  A
C1063      C1068   1.399       .  A
C1064      C1065   1.417       .  A
C1064     Br1075   1.931       .  S
C1065      C1066   1.429       .  A
C1065     Br1071   1.927       .  S
C1066      C1067   1.434       .  A
C1067      C1068   1.406       .  A
C1067     Br1076   1.930       .  S
C1068     Br1072   1.939       .  S
C1077      C1078   1.418       .  A
C1077      C1082   1.421       .  A
C1078      C1079   1.410       .  A
C1078     Br1090   1.924       .  S
C1079      C1080   1.406       .  A
C1079     Br1094   1.932       .  S
C1080      C1083   1.487       .  S
C1080      C1081   1.405       .  A
C1081      C1082   1.408       .  A
C1081     Br1089   1.930       .  S
C1082     Br1093   1.935       .  S
C1083      C1084   1.409       .  A
C1083      C1088   1.411       .  A
C1084      C1085   1.410       .  A
C1084     Br1095   1.928       .  S
C1085      C1086   1.410       .  A
C1085     Br1091   1.929       .  S
C1086      C1087   1.408       .  A
C1087      C1088   1.407       .  A
C1087     Br1096   1.929       .  S
C1088     Br1092   1.931       .  S
C1097      C1098   1.412       .  A
C1097      C1102   1.414       .  A
C1098      C1099   1.409       .  A
C1098     Br1110   1.930       .  S
C1099      C1100   1.409       .  A
C1099     Br1114   1.930       .  S
C1100      C1103   1.483       .  S
C1100      C1101   1.407       .  A
C1101      C1102   1.406       .  A
C1101     Br1109   1.931       .  S
C1102     Br1113   1.932       .  S
C1103      C1104   1.406       .  A
C1103      C1108   1.410       .  A
C1104      C1105   1.402       .  A
C1104     Br1115   1.933       .  S
C1105      C1106   1.414       .  A
C1105     Br1111   1.928       .  S
C1106      C1107   1.409       .  A
C1107      C1108   1.412       .  A
C1107     Br1116   1.924       .  S
C1108     Br1112   1.927       .  S
C1117      C1118   1.411   1_455  A
C1117      C1122   1.411       .  A
C1118      C1119   1.409       .  A
C1118     Br1130   1.930       .  S
C1119      C1120   1.409   1_655  A
C1119     Br1134   1.929       .  S
C1120      C1123   1.489       .  S
C1120      C1121   1.410       .  A
C1121      C1122   1.410       .  A
C1121     Br1129   1.930       .  S
C1122     Br1133   1.929       .  S
C1123      C1124   1.406       .  A
C1123      C1128   1.406   1_455  A
C1124      C1125   1.410       .  A
C1124     Br1135   1.931       .  S
C1125      C1126   1.420   1_455  A
C1125     Br1131   1.930       .  S
C1126      C1127   1.419       .  A
C1127      C1128   1.410       .  A
C1127     Br1136   1.922       .  S
C1128     Br1132   1.933       .  S
C1137      C1138   1.419       .  A
C1137      C1142   1.417       .  A
C1138      C1139   1.411       .  A
C1138     Br1150   1.932       .  S
C1139      C1140   1.408       .  A
C1139     Br1154   1.931       .  S
C1140      C1143   1.489       .  S
C1140      C1141   1.408       .  A
C1141      C1142   1.408       .  A
C1141     Br1149   1.932       .  S
C1142     Br1153   1.934       .  S
C1143      C1144   1.407       .  A
C1143      C1148   1.407       .  A
C1144      C1145   1.410       .  A
C1144     Br1155   1.932       .  S
C1145      C1146   1.418       .  A
C1145     Br1151   1.924       .  S
C1146      C1147   1.419       .  A
C1147      C1148   1.409       .  A
C1147     Br1156   1.934       .  S
C1148     Br1152   1.931       .  S
C1157      C1158   1.416       .  A
C1157      C1162   1.415       .  A
C1158      C1159   1.412       .  A
C1158     Br1170   1.930       .  S
C1159      C1160   1.408       .  A
C1159     Br1174   1.929       .  S
C1160      C1163   1.488       .  S
C1160      C1161   1.408       .  A
C1161      C1162   1.407       .  A
C1161     Br1169   1.932       .  S
C1162     Br1173   1.934       .  S
C1163      C1164   1.404       .  A
C1163      C1168   1.406       .  A
C1164      C1165   1.408       .  A
C1164     Br1175   1.932       .  S
C1165      C1166   1.418       .  A
C1165     Br1171   1.919       .  S
C1166      C1167   1.418       .  A
C1167      C1168   1.413       .  A
C1167     Br1176   1.917       .  S
C1168     Br1172   1.930       .  S
C1177      C1178   1.431       .  A
C1177      C1182   1.436       .  A
C1178      C1179   1.413       .  A
C1178     Br1190   1.929       .  S
C1179      C1180   1.401       .  A
C1179     Br1194   1.934       .  S
C1180      C1183   1.491       .  S
C1180      C1181   1.401       .  A
C1181      C1182   1.413       .  A
C1181     Br1189   1.939       .  S
C1182     Br1193   1.930       .  S
C1183      C1184   1.409       .  A
C1183      C1188   1.410       .  A
C1184      C1185   1.408       .  A
C1184     Br1195   1.929       .  S
C1185      C1186   1.411       .  A
C1185     Br1191   1.930       .  S
C1186      C1187   1.412       .  A
C1187      C1188   1.411       .  A
C1187     Br1196   1.930       .  S
C1188     Br1192   1.929       .  S
C1197      C1198   1.411       .  A
C1197      C1202   1.409       .  A
C1198      C1199   1.408       .  A
C1198     Br1210   1.930       .  S
C1199      C1200   1.410       .  A
C1199     Br1214   1.930       .  S
C1200      C1203   1.485       .  S
C1200      C1201   1.410       .  A
C1201      C1202   1.406       .  A
C1201     Br1209   1.931       .  S
C1202     Br1213   1.922       .  S
C1203      C1204   1.407       .  A
C1203      C1208   1.410       .  A
C1204      C1205   1.405       .  A
C1204     Br1215   1.934       .  S
C1205      C1206   1.421       .  A
C1205     Br1211   1.939       .  S
C1206      C1207   1.411       .  A
C1207      C1208   1.410       .  A
C1207     Br1216   1.923       .  S
C1208     Br1212   1.930       .  S
C1217      C1218   1.410       .  A
C1217      C1222   1.412       .  A
C1218      C1219   1.409       .  A
C1218     Br1230   1.930       .  S
C1219      C1220   1.412       .  A
C1219     Br1234   1.930       .  S
C1220      C1223   1.487       .  S
C1220      C1221   1.407       .  A
C1221      C1222   1.407       .  A
C1221     Br1229   1.929       .  S
C1222     Br1233   1.930       .  S
C1223      C1224   1.400       .  A
C1223      C1228   1.403       .  A
C1224      C1225   1.407       .  A
C1224     Br1235   1.937       .  S
C1225      C1226   1.436       .  A
C1225     Br1231   1.943       .  S
C1226      C1227   1.431       .  A
C1227      C1228   1.414       .  A
C1227     Br1236   1.931       .  S
C1228     Br1232   1.933       .  S
C1237      C1238   1.415       .  A
C1237      C1242   1.417       .  A
C1238      C1239   1.408       .  A
C1238     Br1250   1.921       .  S
C1239      C1240   1.406       .  A
C1239     Br1254   1.931       .  S
C1240      C1243   1.491       .  S
C1240      C1241   1.406       .  A
C1241      C1242   1.413       .  A
C1241     Br1249   1.931       .  S
C1242     Br1253   1.914       .  S
C1243      C1244   1.408       .  A
C1243      C1248   1.407       .  A
C1244      C1245   1.410       .  A
C1244     Br1255   1.932       .  S
C1245      C1246   1.419       .  A
C1245     Br1251   1.934       .  S
C1246      C1247   1.420       .  A
C1247      C1248   1.411       .  A
C1247     Br1256   1.932       .  S
C1248     Br1252   1.930       .  S
C1257      C1258   1.415       .  A
C1257      C1262   1.418       .  A
C1258      C1259   1.409       .  A
C1258     Br1270   1.932       .  S
C1259      C1260   1.408       .  A
C1259     Br1274   1.930       .  S
C1260      C1263   1.480       .  S
C1260      C1261   1.405       .  A
C1261      C1262   1.404       .  A
C1261     Br1269   1.933       .  S
C1262     Br1273   1.935       .  S
C1263      C1264   1.406   1_655  A
C1263      C1268   1.402       .  A
C1264      C1265   1.411       .  A
C1264     Br1275   1.930       .  S
C1265      C1266   1.422   1_455  A
C1265     Br1271   1.930       .  S
C1266      C1267   1.420       .  A
C1267      C1268   1.402       .  A
C1267     Br1276   1.923       .  S
C1268     Br1272   1.933       .  S
C1277      C1278   1.418       .  A
C1277      C1282   1.419       .  A
C1278      C1279   1.412       .  A
C1278     Br1290   1.932       .  S
C1279      C1280   1.409       .  A
C1279     Br1294   1.931       .  S
C1280      C1283   1.493       .  S
C1280      C1281   1.408       .  A
C1281      C1282   1.412       .  A
C1281     Br1289   1.930       .  S
C1282     Br1293   1.932       .  S
C1283      C1284   1.405       .  A
C1283      C1288   1.411       .  A
C1284      C1285   1.406       .  A
C1284     Br1295   1.933       .  S
C1285      C1286   1.421       .  A
C1285     Br1291   1.931       .  S
C1286      C1287   1.412       .  A
C1287      C1288   1.415       .  A
C1287     Br1296   1.922       .  S
C1288     Br1292   1.927       .  S
C1297      C1298   1.421   1_545  A
C1297      C1302   1.425       .  A
C1298      C1299   1.409       .  A
C1298     Br1310   1.929       .  S
C1299      C1300   1.405   1_565  A
C1299     Br1314   1.931       .  S
C1300      C1303   1.487       .  S
C1300      C1301   1.406       .  A
C1301      C1302   1.411       .  A
C1301     Br1309   1.931       .  S
C1302     Br1313   1.933       .  S
C1303      C1304   1.408       .  A
C1303      C1308   1.410       .  A
C1304      C1305   1.407       .  A
C1304     Br1315   1.931       .  S
C1305      C1306   1.416       .  A
C1305     Br1311   1.933       .  S
C1306      C1307   1.411       .  A
C1307      C1308   1.410       .  A
C1307     Br1316   1.929       .  S
C1308     Br1312   1.929       .  S
C1317      C1318   1.424   1_565  A
C1317      C1322   1.425       .  A
C1318      C1319   1.411       .  A
C1318     Br1330   1.933       .  S
C1319      C1320   1.406   1_545  A
C1319     Br1334   1.935       .  S
C1320      C1323   1.495       .  S
C1320      C1321   1.407       .  A
C1321      C1322   1.415       .  A
C1321     Br1329   1.931       .  S
C1322     Br1333   1.934       .  S
C1323      C1324   1.404       .  A
C1323      C1328   1.404   1_565  A
C1324      C1325   1.413       .  A
C1324     Br1335   1.936       .  S
C1325      C1326   1.430       .  A
C1325     Br1331   1.926       .  S
C1326      C1327   1.427   1_565  A
C1327      C1328   1.413       .  A
C1327     Br1336   1.933       .  S
C1328     Br1332   1.932       .  S
C1337      C1338   1.431   1_554  A
C1337      C1342   1.428       .  A
C1338      C1339   1.408   1_556  A
C1338     Br1350   1.928       .  S
C1339      C1340   1.401       .  A
C1339     Br1354   1.940   1_554  S
C1340      C1343   1.487       .  S
C1340      C1341   1.403       .  A
C1341      C1342   1.413       .  A
C1341     Br1349   1.932       .  S
C1342     Br1353   1.930       .  S
C1343      C1344   1.409       .  A
C1343      C1348   1.411       .  A
C1344      C1345   1.406       .  A
C1344     Br1355   1.930   1_554  S
C1345      C1346   1.409       .  A
C1345     Br1351   1.929   1_554  S
C1346      C1347   1.408       .  A
C1347      C1348   1.410       .  A
C1347     Br1356   1.928       .  S
C1348     Br1352   1.928       .  S
C1357      C1358   1.417       .  A
C1357      C1362   1.417   1_556  A
C1358      C1359   1.407       .  A
C1358     Br1370   1.933       .  S
C1359      C1360   1.407       .  A
C1359     Br1374   1.931       .  S
C1360      C1363   1.481       .  S
C1360      C1361   1.405   1_556  A
C1361      C1362   1.406       .  A
C1361     Br1369   1.931       .  S
C1362     Br1373   1.933       .  S
C1363      C1364   1.404       .  A
C1363      C1368   1.402       .  A
C1364      C1365   1.409       .  A
C1364     Br1375   1.931       .  S
C1365      C1366   1.423       .  A
C1365     Br1371   1.931       .  S
C1366      C1367   1.431       .  A
C1367      C1368   1.405       .  A
C1367     Br1376   1.942       .  S
C1368     Br1372   1.934       .  S
C1377      C1378   1.429       .  A
C1377      C1382   1.424       .  A
C1378      C1379   1.413       .  A
C1378     Br1390   1.928       .  S
C1379      C1380   1.406       .  A
C1379     Br1394   1.935       .  S
C1380      C1383   1.496       .  S
C1380      C1381   1.407       .  A
C1381      C1382   1.410       .  A
C1381     Br1389   1.932       .  S
C1382     Br1393   1.934       .  S
C1383      C1384   1.410       .  A
C1383      C1388   1.410       .  A
C1384      C1385   1.412       .  A
C1384     Br1395   1.932       .  S
C1385      C1386   1.420       .  A
C1385     Br1391   1.933       .  S
C1386      C1387   1.415       .  A
C1387      C1388   1.410       .  A
C1387     Br1396   1.927       .  S
C1388     Br1392   1.932       .  S
C1397      C1398   1.435       .  A
C1397      C1402   1.431       .  A
C1398      C1399   1.410       .  A
C1398     Br1410   1.940       .  S
C1399      C1400   1.401       .  A
C1399     Br1414   1.937       .  S
C1400      C1403   1.489       .  S
C1400      C1401   1.404       .  A
C1401      C1402   1.413       .  A
C1401     Br1409   1.934       .  S
C1402     Br1413   1.937       .  S
C1403      C1404   1.406       .  A
C1403      C1408   1.403       .  A
C1404      C1405   1.412       .  A
C1404     Br1415   1.932       .  S
C1405      C1406   1.427       .  A
C1405     Br1411   1.936       .  S
C1406      C1407   1.422       .  A
C1407      C1408   1.408       .  A
C1407     Br1416   1.922       .  S
C1408     Br1412   1.935       .  S
C1417      C1418   1.422       .  A
C1417      C1422   1.418       .  A
C1418      C1419   1.407       .  A
C1418     Br1430   1.926       .  S
C1419      C1420   1.404       .  A
C1419     Br1434   1.935       .  S
C1420      C1423   1.490       .  S
C1420      C1421   1.407       .  A
C1421      C1422   1.414       .  A
C1421     Br1429   1.930       .  S
C1422     Br1433   1.920       .  S
C1423      C1424   1.410       .  A
C1423      C1428   1.411       .  A
C1424      C1425   1.410       .  A
C1424     Br1435   1.929       .  S
C1425      C1426   1.412       .  A
C1425     Br1431   1.930       .  S
C1426      C1427   1.411       .  A
C1427      C1428   1.408       .  A
C1427     Br1436   1.931       .  S
C1428     Br1432   1.931       .  S
C1437      C1438   1.417       .  A
C1437      C1442   1.421       .  A
C1438      C1439   1.409       .  A
C1438     Br1450   1.922       .  S
C1439      C1440   1.406       .  A
C1439     Br1454   1.933       .  S
C1440      C1443   1.489       .  S
C1440      C1441   1.407       .  A
C1441      C1442   1.410       .  A
C1441     Br1449   1.931       .  S
C1442     Br1453   1.933       .  S
C1443      C1444   1.407       .  A
C1443      C1448   1.407       .  A
C1444      C1445   1.411       .  A
C1444     Br1455   1.931       .  S
C1445      C1446   1.422       .  A
C1445     Br1451   1.933       .  S
C1446      C1447   1.421       .  A
C1447      C1448   1.409       .  A
C1447     Br1456   1.935       .  S
C1448     Br1452   1.933       .  S
C1457      C1458   1.426       .  A
C1457      C1462   1.424       .  A
C1458      C1459   1.415       .  A
C1458     Br1470   1.925       .  S
C1459      C1460   1.408       .  A
C1459     Br1474   1.935       .  S
C1460      C1463   1.486       .  S
C1460      C1461   1.403       .  A
C1461      C1462   1.399       .  A
C1461     Br1469   1.936       .  S
C1462     Br1473   1.937       .  S
C1463      C1464   1.406       .  A
C1463      C1468   1.410       .  A
C1464      C1465   1.401       .  A
C1464     Br1475   1.934       .  S
C1465      C1466   1.417       .  A
C1465     Br1471   1.932       .  S
C1466      C1467   1.422       .  A
C1467      C1468   1.411       .  A
C1467     Br1476   1.933       .  S
C1468     Br1472   1.933       .  S
C1477      C1478   1.420   1_655  A
C1477      C1482   1.420       .  A
C1478      C1479   1.408       .  A
C1478     Br1490   1.935       .  S
C1479      C1480   1.406   1_455  A
C1479     Br1494   1.931       .  S
C1480      C1483   1.489       .  S
C1480      C1481   1.406       .  A
C1481      C1482   1.412       .  A
C1481     Br1489   1.933       .  S
C1482     Br1493   1.923       .  S
C1483      C1484   1.407       .  A
C1483      C1488   1.408       .  A
C1484      C1485   1.410       .  A
C1484     Br1495   1.931       .  S
C1485      C1486   1.421       .  A
C1485     Br1491   1.933       .  S
C1486      C1487   1.419       .  A
C1487      C1488   1.410       .  A
C1487     Br1496   1.934       .  S
C1488     Br1492   1.932       .  S
C1497      C1498   1.413       .  A
C1497      C1502   1.417       .  A
C1498      C1499   1.411       .  A
C1498     Br1510   1.924       .  S
C1499      C1500   1.408       .  A
C1499     Br1514   1.928       .  S
C1500      C1503   1.483       .  S
C1500      C1501   1.405       .  A
C1501      C1502   1.402       .  A
C1501     Br1509   1.934       .  S
C1502     Br1513   1.927       .  S
C1503      C1504   1.408   1_655  A
C1503      C1508   1.405       .  A
C1504      C1505   1.409       .  A
C1504     Br1515   1.931       .  S
C1505      C1506   1.416       .  A
C1505     Br1511   1.932       .  S
C1506      C1507   1.419   1_455  A
C1507      C1508   1.407       .  A
C1507     Br1516   1.935       .  S
C1508     Br1512   1.932       .  S
C1517      C1518   1.425       .  A
C1517      C1522   1.420       .  A
C1518      C1519   1.412       .  A
C1518     Br1530   1.930       .  S
C1519      C1520   1.406       .  A
C1519     Br1534   1.931       .  S
C1520      C1523   1.480       .  S
C1520      C1521   1.402       .  A
C1521      C1522   1.400       .  A
C1521     Br1529   1.934       .  S
C1522     Br1533   1.921       .  S
C1523      C1524   1.409       .  A
C1523      C1528   1.409       .  A
C1524      C1525   1.404       .  A
C1524     Br1535   1.931       .  S
C1525      C1526   1.410       .  A
C1525     Br1531   1.932       .  S
C1526      C1527   1.409       .  A
C1527      C1528   1.406       .  A
C1527     Br1536   1.929       .  S
C1528     Br1532   1.930       .  S
C1537      C1538   1.420       .  A
C1537      C1542   1.430   1_565  A
C1538      C1539   1.409       .  A
C1538     Br1550   1.932       .  S
C1539      C1540   1.408       .  A
C1539     Br1554   1.932       .  S
C1540      C1543   1.492   1_565  S
C1540      C1541   1.406   1_565  A
C1541      C1542   1.411       .  A
C1541     Br1549   1.936       .  S
C1542     Br1553   1.938       .  S
C1543      C1544   1.403   1_545  A
C1543      C1548   1.406       .  A
C1544      C1545   1.409       .  A
C1544     Br1555   1.938       .  S
C1545      C1546   1.429   1_565  A
C1545     Br1551   1.925       .  S
C1546      C1547   1.426       .  A
C1547      C1548   1.412       .  A
C1547     Br1556   1.931       .  S
C1548     Br1552   1.933       .  S
C1557      C1558   1.425   1_545  A
C1557      C1562   1.428       .  A
C1558      C1559   1.408       .  A
C1558     Br1570   1.928       .  S
C1559      C1560   1.404   1_565  A
C1559     Br1574   1.933       .  S
C1560      C1563   1.493       .  S
C1560      C1561   1.407       .  A
C1561      C1562   1.415       .  A
C1561     Br1569   1.931       .  S
C1562     Br1573   1.933       .  S
C1563      C1564   1.410       .  A
C1563      C1568   1.409       .  A
C1564      C1565   1.413       .  A
C1564     Br1575   1.928       .  S
C1565      C1566   1.413       .  A
C1565     Br1571   1.929       .  S
C1566      C1567   1.416       .  A
C1567      C1568   1.409       .  A
C1567     Br1576   1.933       .  S
C1568     Br1572   1.931       .  S
C1577      C1578   1.417       .  A
C1577      C1582   1.413       .  A
C1578      C1579   1.409       .  A
C1578     Br1590   1.932       .  S
C1579      C1580   1.406       .  A
C1579     Br1594   1.929       .  S
C1580      C1583   1.484       .  S
C1580      C1581   1.409       .  A
C1581      C1582   1.407       .  A
C1581     Br1589   1.932       .  S
C1582     Br1593   1.931       .  S
C1583      C1584   1.406       .  A
C1583      C1588   1.405       .  A
C1584      C1585   1.407       .  A
C1584     Br1595   1.930       .  S
C1585      C1586   1.417       .  A
C1585     Br1591   1.932       .  S
C1586      C1587   1.417       .  A
C1587      C1588   1.409       .  A
C1587     Br1596   1.922       .  S
C1588     Br1592   1.932       .  S
C1597      C1598   1.415       .  A
C1597      C1602   1.414       .  A
C1598      C1599   1.406       .  A
C1598     Br1610   1.932       .  S
C1599      C1600   1.406       .  A
C1599     Br1614   1.931       .  S
C1600      C1603   1.480       .  S
C1600      C1601   1.407       .  A
C1601      C1602   1.406       .  A
C1601     Br1609   1.932       .  S
C1602     Br1613   1.931       .  S
C1603      C1604   1.404       .  A
C1603      C1608   1.405       .  A
C1604      C1605   1.406       .  A
C1604     Br1615   1.933       .  S
C1605      C1606   1.417       .  A
C1605     Br1611   1.920       .  S
C1606      C1607   1.419       .  A
C1607      C1608   1.407       .  A
C1607     Br1616   1.929       .  S
C1608     Br1612   1.932       .  S
C1617      C1618   1.427       .  A
C1617      C1622   1.428       .  A
C1618      C1619   1.408       .  A
C1618     Br1630   1.938       .  S
C1619      C1620   1.405       .  A
C1619     Br1634   1.936       .  S
C1620      C1623   1.486       .  S
C1620      C1621   1.402       .  A
C1621      C1622   1.412       .  A
C1621     Br1629   1.933       .  S
C1622     Br1633   1.930       .  S
C1623      C1624   1.405       .  A
C1623      C1628   1.408       .  A
C1624      C1625   1.404       .  A
C1624     Br1635   1.931       .  S
C1625      C1626   1.417       .  A
C1625     Br1631   1.934       .  S
C1626      C1627   1.414       .  A
C1627      C1628   1.410       .  A
C1627     Br1636   1.928       .  S
C1628     Br1632   1.929       .  S
C1637      C1638   1.422       .  A
C1637      C1642   1.418   1_455  A
C1638      C1639   1.413       .  A
C1638     Br1650   1.924       .  S
C1639      C1640   1.406       .  A
C1639     Br1654   1.932       .  S
C1640      C1643   1.485       .  S
C1640      C1641   1.404   1_455  A
C1641      C1642   1.404       .  A
C1641     Br1649   1.932       .  S
C1642     Br1653   1.927       .  S
C1643      C1644   1.406       .  A
C1643      C1648   1.407       .  A
C1644      C1645   1.409       .  A
C1644     Br1655   1.931       .  S
C1645      C1646   1.419       .  A
C1645     Br1651   1.933   1_556  S
C1646      C1647   1.419       .  A
C1647      C1648   1.408       .  A
C1647     Br1656   1.934       .  S
C1648     Br1652   1.933       .  S
C1657      C1658   1.409       .  A
C1657      C1662   1.417       .  A
C1658      C1659   1.410       .  A
C1658     Br1670   1.926       .  S
C1659      C1660   1.411       .  A
C1659     Br1674   1.929       .  S
C1660      C1663   1.487       .  S
C1660      C1661   1.407       .  A
C1661      C1662   1.405       .  A
C1661     Br1669   1.932       .  S
C1662     Br1673   1.936       .  S
C1663      C1664   1.407   1_655  A
C1663      C1668   1.410       .  A
C1664      C1665   1.407       .  A
C1664     Br1675   1.932       .  S
C1665      C1666   1.418   1_455  A
C1665     Br1671   1.934       .  S
C1666      C1667   1.414       .  A
C1667      C1668   1.410       .  A
C1667     Br1676   1.931       .  S
C1668     Br1672   1.931       .  S
C1677      C1678   1.417       .  A
C1677      C1682   1.419       .  A
C1678      C1679   1.408       .  A
C1678     Br1690   1.930       .  S
C1679      C1680   1.406       .  A
C1679     Br1694   1.931       .  S
C1680      C1683   1.485       .  S
C1680      C1681   1.405       .  A
C1681      C1682   1.409       .  A
C1681     Br1689   1.933       .  S
C1682     Br1693   1.921       .  S
C1683      C1684   1.409       .  A
C1683      C1688   1.409       .  A
C1684      C1685   1.409       .  A
C1684     Br1695   1.929       .  S
C1685      C1686   1.412       .  A
C1685     Br1691   1.931       .  S
C1686      C1687   1.413       .  A
C1687      C1688   1.406       .  A
C1687     Br1696   1.932       .  S
C1688     Br1692   1.931       .  S
C1697      C1698   1.419       .  A
C1697      C1702   1.418       .  A
C1698      C1699   1.406       .  A
C1698     Br1710   1.934       .  S
C1699      C1700   1.405       .  A
C1699     Br1714   1.931       .  S
C1700      C1703   1.479       .  S
C1700      C1701   1.409       .  A
C1701      C1702   1.405       .  A
C1701     Br1709   1.935       .  S
C1702     Br1713   1.935       .  S
C1703      C1704   1.407       .  A
C1703      C1708   1.408       .  A
C1704      C1705   1.402       .  A
C1704     Br1715   1.934       .  S
C1705      C1706   1.418       .  A
C1705     Br1711   1.938       .  S
C1706      C1707   1.410       .  A
C1707      C1708   1.406       .  A
C1707     Br1716   1.926       .  S
C1708     Br1712   1.930       .  S
C1717      C1718   1.437       .  A
C1717      C1722   1.432       .  A
C1718      C1719   1.416       .  A
C1718     Br1730   1.933       .  S
C1719      C1720   1.402       .  A
C1719     Br1734   1.936       .  S
C1720      C1723   1.487       .  S
C1720      C1721   1.398       .  A
C1721      C1722   1.406       .  A
C1721     Br1729   1.939       .  S
C1722     Br1733   1.926       .  S
C1723      C1724   1.403       .  A
C1723      C1728   1.406       .  A
C1724      C1725   1.410       .  A
C1724     Br1735   1.931       .  S
C1725      C1726   1.427       .  A
C1725     Br1731   1.936       .  S
C1726      C1727   1.425       .  A
C1727      C1728   1.408       .  A
C1727     Br1736   1.938       .  S
C1728     Br1732   1.936       .  S
C1737      C1738   1.419       .  A
C1737      C1742   1.420       .  A
C1738      C1739   1.411       .  A
C1738     Br1750   1.917       .  S
C1739      C1740   1.405       .  A
C1739     Br1754   1.933       .  S
C1740      C1743   1.494       .  S
C1740      C1741   1.408       .  A
C1741      C1742   1.413       .  A
C1741     Br1749   1.930       .  S
C1742     Br1753   1.932       .  S
C1743      C1744   1.408       .  A
C1743      C1748   1.410       .  A
C1744      C1745   1.409       .  A
C1744     Br1755   1.931       .  S
C1745      C1746   1.416       .  A
C1745     Br1751   1.932       .  S
C1746      C1747   1.415       .  A
C1747      C1748   1.414       .  A
C1747     Br1756   1.929       .  S
C1748     Br1752   1.928       .  S
C1757      C1758   1.415       .  A
C1757      C1762   1.418       .  A
C1758      C1759   1.415       .  A
C1758     Br1770   1.930       .  S
C1759      C1760   1.412       .  A
C1759     Br1774   1.929       .  S
C1760      C1763   1.501       .  S
C1760      C1761   1.409       .  A
C1761      C1762   1.414       .  A
C1761     Br1769   1.929       .  S
C1762     Br1773   1.931       .  S
C1763      C1764   1.413       .  A
C1763      C1768   1.408       .  A
C1764      C1765   1.417       .  A
C1764     Br1775   1.926       .  S
C1765      C1766   1.411       .  A
C1765     Br1771   1.923       .  S
C1766      C1767   1.418       .  A
C1767      C1768   1.410       .  A
C1767     Br1776   1.932       .  S
C1768     Br1772   1.932       .  S
C1777      C1778   1.424       .  A
C1777      C1782   1.421       .  A
C1778      C1779   1.411       .  A
C1778     Br1790   1.929       .  S
C1779      C1780   1.405       .  A
C1779     Br1794   1.930       .  S
C1780      C1783   1.485       .  S
C1780      C1781   1.405       .  A
C1781      C1782   1.406       .  A
C1781     Br1789   1.931       .  S
C1782     Br1793   1.931       .  S
C1783      C1784   1.409       .  A
C1783      C1788   1.411       .  A
C1784      C1785   1.407       .  A
C1784     Br1795   1.929       .  S
C1785      C1786   1.410       .  A
C1785     Br1791   1.929       .  S
C1786      C1787   1.407       .  A
C1787      C1788   1.408       .  A
C1787     Br1796   1.928       .  S
C1788     Br1792   1.929       .  S
C1797      C1798   1.425       .  A
C1797      C1802   1.432       .  A
C1798      C1799   1.412       .  A
C1798     Br1810   1.923       .  S
C1799      C1800   1.404       .  A
C1799     Br1814   1.931       .  S
C1800      C1803   1.489       .  S
C1800      C1801   1.403       .  A
C1801      C1802   1.409       .  A
C1801     Br1809   1.936       .  S
C1802     Br1813   1.935       .  S
C1803      C1804   1.409       .  A
C1803      C1808   1.407       .  A
C1804      C1805   1.410       .  A
C1804     Br1815   1.931       .  S
C1805      C1806   1.417       .  A
C1805     Br1811   1.933       .  S
C1806      C1807   1.417       .  A
C1807      C1808   1.410       .  A
C1807     Br1816   1.932       .  S
C1808     Br1812   1.930       .  S
C1817      C1818   1.424       .  A
C1817      C1822   1.421   1_554  A
C1818      C1819   1.414       .  A
C1818     Br1830   1.933       .  S
C1819      C1820   1.409       .  A
C1819     Br1834   1.932       .  S
C1820      C1823   1.501       .  S
C1820      C1821   1.409   1_554  A
C1821      C1822   1.412       .  A
C1821     Br1829   1.934       .  S
C1822     Br1833   1.924       .  S
C1823      C1824   1.411       .  A
C1823      C1828   1.411   1_554  A
C1824      C1825   1.413       .  A
C1824     Br1835   1.931       .  S
C1825      C1826   1.414       .  A
C1825     Br1831   1.917       .  S
C1826      C1827   1.417   1_554  A
C1827      C1828   1.412       .  A
C1827     Br1836   1.925       .  S
C1828     Br1832   1.932       .  S
C1837      C1838   1.425   1_554  A
C1837      C1842   1.423       .  A
C1838      C1839   1.411       .  A
C1838     Br1850   1.935       .  S
C1839      C1840   1.407   1_556  A
C1839     Br1854   1.933       .  S
C1840      C1843   1.495       .  S
C1840      C1841   1.407       .  A
C1841      C1842   1.413       .  A
C1841     Br1849   1.931       .  S
C1842     Br1853   1.933       .  S
C1843      C1844   1.407   1_554  A
C1843      C1848   1.410       .  A
C1844      C1845   1.409       .  A
C1844     Br1855   1.933       .  S
C1845      C1846   1.423       .  A
C1845     Br1851   1.938       .  S
C1846      C1847   1.412       .  A
C1847      C1848   1.414   1_556  A
C1847     Br1856   1.924   1_556  S
C1848     Br1852   1.928       .  S
C1857      C1858   1.422       .  A
C1857      C1862   1.423       .  A
C1858      C1859   1.412       .  A
C1858     Br1870   1.916       .  S
C1859      C1860   1.405       .  A
C1859     Br1874   1.935       .  S
C1860      C1863   1.496       .  S
C1860      C1861   1.407       .  A
C1861      C1862   1.414       .  A
C1861     Br1869   1.931       .  S
C1862     Br1873   1.928       .  S
C1863      C1864   1.410       .  A
C1863      C1868   1.409       .  A
C1864      C1865   1.412       .  A
C1864     Br1875   1.932       .  S
C1865      C1866   1.417       .  A
C1865     Br1871   1.932       .  S
C1866      C1867   1.418       .  A
C1867      C1868   1.413       .  A
C1867     Br1876   1.932       .  S
C1868     Br1872   1.929       .  S
C1877      C1878   1.412       .  A
C1877      C1882   1.414       .  A
C1878      C1879   1.409       .  A
C1878     Br1890   1.930       .  S
C1879      C1880   1.412       .  A
C1879     Br1894   1.932       .  S
C1880      C1883   1.494       .  S
C1880      C1881   1.411       .  A
C1881      C1882   1.412       .  A
C1881     Br1889   1.929       .  S
C1882     Br1893   1.929       .  S
C1883      C1884   1.408       .  A
C1883      C1888   1.413       .  A
C1884      C1885   1.405       .  A
C1884     Br1895   1.933       .  S
C1885      C1886   1.415       .  A
C1885     Br1891   1.932       .  S
C1886      C1887   1.410       .  A
C1887      C1888   1.414       .  A
C1887     Br1896   1.923       .  S
C1888     Br1892   1.928       .  S
C1897      C1898   1.421       .  A
C1897      C1902   1.422       .  A
C1898      C1899   1.409       .  A
C1898     Br1910   1.922       .  S
C1899      C1900   1.405       .  A
C1899     Br1914   1.932       .  S
C1900      C1903   1.491       .  S
C1900      C1901   1.407       .  A
C1901      C1902   1.412       .  A
C1901     Br1909   1.928       .  S
C1902     Br1913   1.933       .  S
C1903      C1904   1.409       .  A
C1903      C1908   1.411       .  A
C1904      C1905   1.409       .  A
C1904     Br1915   1.930       .  S
C1905      C1906   1.413       .  A
C1905     Br1911   1.930       .  S
C1906      C1907   1.411       .  A
C1907      C1908   1.411       .  A
C1907     Br1916   1.930       .  S
C1908     Br1912   1.929       .  S
C1917      C1918   1.411       .  A
C1917      C1922   1.417       .  A
C1918      C1919   1.413       .  A
C1918     Br1930   1.924       .  S
C1919      C1920   1.410       .  A
C1919     Br1934   1.927       .  S
C1920      C1923   1.488       .  S
C1920      C1921   1.405       .  A
C1921      C1922   1.405       .  A
C1921     Br1929   1.934       .  S
C1922     Br1933   1.927       .  S
C1923      C1924   1.407       .  A
C1923      C1928   1.407       .  A
C1924      C1925   1.409       .  A
C1924     Br1935   1.931       .  S
C1925      C1926   1.419       .  A
C1925     Br1931   1.933       .  S
C1926      C1927   1.418       .  A
C1927      C1928   1.409       .  A
C1927     Br1936   1.933       .  S
C1928     Br1932   1.931       .  S
C1937      C1938   1.423       .  A
C1937      C1942   1.420       .  A
C1938      C1939   1.409       .  A
C1938     Br1950   1.935       .  S
C1939      C1940   1.406       .  A
C1939     Br1954   1.933       .  S
C1940      C1943   1.485       .  S
C1940      C1941   1.406       .  A
C1941      C1942   1.409       .  A
C1941     Br1949   1.932       .  S
C1942     Br1953   1.933       .  S
C1943      C1944   1.404   1_655  A
C1943      C1948   1.405       .  A
C1944      C1945   1.407       .  A
C1944     Br1955   1.933       .  S
C1945      C1946   1.420   1_455  A
C1945     Br1951   1.920       .  S
C1946      C1947   1.424       .  A
C1947      C1948   1.409       .  A
C1947     Br1956   1.935       .  S
C1948     Br1952   1.929       .  S
C1957      C1958   1.422       .  A
C1957      C1962   1.421   1_455  A
C1958      C1959   1.410       .  A
C1958     Br1970   1.923       .  S
C1959      C1960   1.405       .  A
C1959     Br1974   1.934       .  S
C1960      C1963   1.488       .  S
C1960      C1961   1.406   1_455  A
C1961      C1962   1.409       .  A
C1961     Br1969   1.931       .  S
C1962     Br1973   1.934       .  S
C1963      C1964   1.409   1_455  A
C1963      C1968   1.409       .  A
C1964      C1965   1.408       .  A
C1964     Br1975   1.931       .  S
C1965      C1966   1.413   1_655  A
C1965     Br1971   1.929       .  S
C1966      C1967   1.415       .  A
C1967      C1968   1.409       .  A
C1967     Br1976   1.931       .  S
C1968     Br1972   1.930       .  S
C1977      C1978   1.412       .  A
C1977      C1982   1.410       .  A
C1978      C1979   1.410       .  A
C1978     Br1990   1.930       .  S
C1979      C1980   1.410       .  A
C1979     Br1994   1.929       .  S
C1980      C1983   1.491       .  S
C1980      C1981   1.411       .  A
C1981      C1982   1.409       .  A
C1981     Br1989   1.930       .  S
C1982     Br1993   1.931       .  S
C1983      C1984   1.406       .  A
C1983      C1988   1.406       .  A
C1984      C1985   1.413       .  A
C1984     Br1995   1.932       .  S
C1985      C1986   1.422       .  A
C1985     Br1991   1.922       .  S
C1986      C1987   1.421       .  A
C1987      C1988   1.409       .  A
C1987     Br1996   1.934       .  S
C1988     Br1992   1.931       .  S
C1997      C1998   1.418       .  A
C1997      C2002   1.422       .  A
C1998      C1999   1.407       .  A
C1998     Br2010   1.921       .  S
C1999      C2000   1.405       .  A
C1999     Br2014   1.930       .  S
C2000      C2003   1.481       .  S
C2000      C2001   1.404       .  A
C2001      C2002   1.407       .  A
C2001     Br2009   1.928       .  S
C2002     Br2013   1.934       .  S
C2003      C2004   1.407       .  A
C2003      C2008   1.407       .  A
C2004      C2005   1.409       .  A
C2004     Br2015   1.930       .  S
C2005      C2006   1.416       .  A
C2005     Br2011   1.932       .  S
C2006      C2007   1.412       .  A
C2007      C2008   1.405       .  A
C2007     Br2016   1.931       .  S
C2008     Br2012   1.932       .  S
C2017      C2018   1.419       .  A
C2017      C2022   1.416       .  A
C2018      C2019   1.408       .  A
C2018     Br2030   1.935       .  S
C2019      C2020   1.409       .  A
C2019     Br2034   1.933       .  S
C2020      C2023   1.490       .  S
C2020      C2021   1.408       .  A
C2021      C2022   1.408       .  A
C2021     Br2029   1.933       .  S
C2022     Br2033   1.923       .  S
C2023      C2024   1.409       .  A
C2023      C2028   1.410       .  A
C2024      C2025   1.408       .  A
C2024     Br2035   1.933       .  S
C2025      C2026   1.418       .  A
C2025     Br2031   1.934       .  S
C2026      C2027   1.416       .  A
C2027      C2028   1.409       .  A
C2027     Br2036   1.932       .  S
C2028     Br2032   1.932       .  S
C2037      C2038   1.417       .  A
C2037      C2042   1.412       .  A
C2038      C2039   1.410       .  A
C2038     Br2050   1.928       .  S
C2039      C2040   1.408       .  A
C2039     Br2054   1.931       .  S
C2040      C2043   1.496       .  S
C2040      C2041   1.411       .  A
C2041      C2042   1.414       .  A
C2041     Br2049   1.928       .  S
C2042     Br2053   1.923       .  S
C2043      C2044   1.410       .  A
C2043      C2048   1.407       .  A
C2044      C2045   1.415       .  A
C2044     Br2055   1.930       .  S
C2045      C2046   1.418       .  A
C2045     Br2051   1.930       .  S
C2046      C2047   1.419       .  A
C2047      C2048   1.410       .  A
C2047     Br2056   1.933       .  S
C2048     Br2052   1.931       .  S
C2057      C2058   1.406       .  A
C2057      C2062   1.410       .  A
C2058      C2059   1.405       .  A
C2058     Br2070   1.929       .  S
C2059      C2060   1.409       .  A
C2059     Br2074   1.928       .  S
C2060      C2063   1.481       .  S
C2060      C2061   1.409       .  A
C2061      C2062   1.406       .  A
C2061     Br2069   1.929       .  S
C2062     Br2073   1.933       .  S
C2063      C2064   1.408       .  A
C2063      C2068   1.407       .  A
C2064      C2065   1.407       .  A
C2064     Br2075   1.931       .  S
C2065      C2066   1.414       .  A
C2065     Br2071   1.932       .  S
C2066      C2067   1.415       .  A
C2067      C2068   1.407       .  A
C2067     Br2076   1.932       .  S
C2068     Br2072   1.930       .  S
C2077      C2078   1.414       .  A
C2077      C2082   1.412       .  A
C2078      C2079   1.412       .  A
C2078     Br2090   1.929       .  S
C2079      C2080   1.410       .  A
C2079     Br2094   1.929       .  S
C2080      C2083   1.489       .  S
C2080      C2081   1.411       .  A
C2081      C2082   1.404       .  A
C2081     Br2089   1.934       .  S
C2082     Br2093   1.935       .  S
C2083      C2084   1.406       .  A
C2083      C2088   1.402       .  A
C2084      C2085   1.414       .  A
C2084     Br2095   1.932       .  S
C2085      C2086   1.430       .  A
C2085     Br2091   1.937       .  S
C2086      C2087   1.426       .  A
C2087      C2088   1.403       .  A
C2087     Br2096   1.929       .  S
C2088     Br2092   1.935       .  S
C2097      C2098   1.422       .  A
C2097      C2102   1.430       .  A
C2098      C2099   1.407       .  A
C2098     Br2110   1.934       .  S
C2099      C2100   1.404       .  A
C2099     Br2114   1.930       .  S
C2100      C2103   1.488       .  S
C2100      C2101   1.405       .  A
C2101      C2102   1.413       .  A
C2101     Br2109   1.935       .  S
C2102     Br2113   1.930       .  S
C2103      C2104   1.409       .  A
C2103      C2108   1.410       .  A
C2104      C2105   1.408       .  A
C2104     Br2115   1.930       .  S
C2105      C2106   1.412       .  A
C2105     Br2111   1.929       .  S
C2106      C2107   1.409       .  A
C2107      C2108   1.409       .  A
C2107     Br2116   1.925       .  S
C2108     Br2112   1.931       .  S
C2117      C2118   1.418       .  A
C2117      C2122   1.419       .  A
C2118      C2119   1.407       .  A
C2118     Br2130   1.930       .  S
C2119      C2120   1.405       .  A
C2119     Br2134   1.930       .  S
C2120      C2123   1.486       .  S
C2120      C2121   1.407       .  A
C2121      C2122   1.411       .  A
C2121     Br2129   1.931       .  S
C2122     Br2133   1.924       .  S
C2123      C2124   1.407       .  A
C2123      C2128   1.409       .  A
C2124      C2125   1.408       .  A
C2124     Br2135   1.930       .  S
C2125      C2126   1.415       .  A
C2125     Br2131   1.932       .  S
C2126      C2127   1.414       .  A
C2127      C2128   1.409       .  A
C2127     Br2136   1.932       .  S
C2128     Br2132   1.930       .  S
C2137      C2138   1.419       .  A
C2137      C2142   1.422       .  A
C2138      C2139   1.407       .  A
C2138     Br2150   1.934       .  S
C2139      C2140   1.407       .  A
C2139     Br2154   1.930       .  S
C2140      C2143   1.485       .  S
C2140      C2141   1.406       .  A
C2141      C2142   1.409       .  A
C2141     Br2149   1.929       .  S
C2142     Br2153   1.935       .  S
C2143      C2144   1.409       .  A
C2143      C2148   1.409       .  A
C2144      C2145   1.408       .  A
C2144     Br2155   1.929       .  S
C2145      C2146   1.409       .  A
C2145     Br2151   1.929       .  S
C2146      C2147   1.412       .  A
C2147      C2148   1.408       .  A
C2147     Br2156   1.930       .  S
C2148     Br2152   1.929       .  S
C2157      C2158   1.409       .  A
C2157      C2162   1.409       .  A
C2158      C2159   1.405       .  A
C2158     Br2170   1.932       .  S
C2159      C2160   1.408       .  A
C2159     Br2174   1.929       .  S
C2160      C2163   1.483       .  S
C2160      C2161   1.410       .  A
C2161      C2162   1.407       .  A
C2161     Br2169   1.929       .  S
C2162     Br2173   1.932       .  S
C2163      C2164   1.406       .  A
C2163      C2168   1.406       .  A
C2164      C2165   1.406       .  A
C2164     Br2175   1.933       .  S
C2165      C2166   1.418       .  A
C2165     Br2171   1.934       .  S
C2166      C2167   1.419       .  A
C2167      C2168   1.410       .  A
C2167     Br2176   1.933       .  S
C2168     Br2172   1.930       .  S
C2177      C2178   1.424       .  A
C2177      C2182   1.422       .  A
C2178      C2179   1.411       .  A
C2178     Br2190   1.935       .  S
C2179      C2180   1.407       .  A
C2179     Br2194   1.931       .  S
C2180      C2183   1.487       .  S
C2180      C2181   1.403       .  A
C2181      C2182   1.407       .  A
C2181     Br2189   1.932       .  S
C2182     Br2193   1.922       .  S
C2183      C2184   1.411       .  A
C2183      C2188   1.408       .  A
C2184      C2185   1.409       .  A
C2184     Br2195   1.930       .  S
C2185      C2186   1.410       .  A
C2185     Br2191   1.929       .  S
C2186      C2187   1.412       .  A
C2187      C2188   1.408       .  A
C2187     Br2196   1.931       .  S
C2188     Br2192   1.929       .  S
C2197      C2198   1.426       .  A
C2197      C2202   1.422       .  A
C2198      C2199   1.411       .  A
C2198     Br2210   1.927       .  S
C2199      C2200   1.405       .  A
C2199     Br2214   1.936       .  S
C2200      C2203   1.486       .  S
C2200      C2201   1.404       .  A
C2201      C2202   1.408       .  A
C2201     Br2209   1.931       .  S
C2202     Br2213   1.934       .  S
C2203      C2204   1.409       .  A
C2203      C2208   1.409       .  A
C2204      C2205   1.408       .  A
C2204     Br2215   1.930       .  S
C2205      C2206   1.412       .  A
C2205     Br2211   1.931       .  S
C2206      C2207   1.412       .  A
C2207      C2208   1.408       .  A
C2207     Br2216   1.931       .  S
C2208     Br2212   1.930       .  S
C2217      C2218   1.418       .  A
C2217      C2222   1.421       .  A
C2218      C2219   1.409       .  A
C2218     Br2230   1.925       .  S
C2219      C2220   1.407       .  A
C2219     Br2234   1.933       .  S
C2220      C2223   1.487       .  S
C2220      C2221   1.406       .  A
C2221      C2222   1.409       .  A
C2221     Br2229   1.930       .  S
C2222     Br2233   1.933       .  S
C2223      C2224   1.411       .  A
C2223      C2228   1.409       .  A
C2224      C2225   1.407       .  A
C2224     Br2235   1.930       .  S
C2225      C2226   1.407       .  A
C2225     Br2231   1.929       .  S
C2226      C2227   1.411       .  A
C2227      C2228   1.410       .  A
C2227     Br2236   1.929       .  S
C2228     Br2232   1.928       .  S
C2237      C2238   1.419       .  A
C2237      C2242   1.416       .  A
C2238      C2239   1.409       .  A
C2238     Br2250   1.933       .  S
C2239      C2240   1.408       .  A
C2239     Br2254   1.932       .  S
C2240      C2243   1.487       .  S
C2240      C2241   1.409       .  A
C2241      C2242   1.407       .  A
C2241     Br2249   1.933       .  S
C2242     Br2253   1.933       .  S
C2243      C2244   1.408       .  A
C2243      C2248   1.412       .  A
C2244      C2245   1.402       .  A
C2244     Br2255   1.934       .  S
C2245      C2246   1.413       .  A
C2245     Br2251   1.928       .  S
C2246      C2247   1.409       .  A
C2247      C2248   1.411       .  A
C2247     Br2256   1.924       .  S
C2248     Br2252   1.928       .  S
C2257      C2258   1.421       .  A
C2257      C2262   1.417       .  A
C2258      C2259   1.410       .  A
C2258     Br2270   1.931       .  S
C2259      C2260   1.406       .  A
C2259     Br2274   1.931       .  S
C2260      C2263   1.491       .  S
C2260      C2261   1.407       .  A
C2261      C2262   1.411       .  A
C2261     Br2269   1.932       .  S
C2262     Br2273   1.923       .  S
C2263      C2264   1.406       .  A
C2263      C2268   1.409       .  A
C2264      C2265   1.409       .  A
C2264     Br2275   1.933       .  S
C2265      C2266   1.420       .  A
C2265     Br2271   1.932       .  S
C2266      C2267   1.417       .  A
C2267      C2268   1.412       .  A
C2267     Br2276   1.931       .  S
C2268     Br2272   1.929       .  S
C2277      C2278   1.416       .  A
C2277      C2282   1.414       .  A
C2278      C2279   1.408   1_556  A
C2278     Br2290   1.931   1_556  S
C2279      C2280   1.407   1_554  A
C2279     Br2294   1.930       .  S
C2280      C2283   1.489       .  S
C2280      C2281   1.410       .  A
C2281      C2282   1.412       .  A
C2281     Br2289   1.929       .  S
C2282     Br2293   1.930       .  S
C2283      C2284   1.406       .  A
C2283      C2288   1.409       .  A
C2284      C2285   1.405       .  A
C2284     Br2295   1.933       .  S
C2285      C2286   1.416       .  A
C2285     Br2291   1.926       .  S
C2286      C2287   1.416       .  A
C2287      C2288   1.414       .  A
C2287     Br2296   1.922       .  S
C2288     Br2292   1.928       .  S
C2297      C2298   1.421       .  A
C2297      C2302   1.417   1_556  A
C2298      C2299   1.408       .  A
C2298     Br2310   1.935       .  S
C2299      C2300   1.406   1_556  A
C2299     Br2314   1.931       .  S
C2300      C2303   1.489       .  S
C2300      C2301   1.407       .  A
C2301      C2302   1.411       .  A
C2301     Br2309   1.931       .  S
C2302     Br2313   1.923       .  S
C2303      C2304   1.408       .  A
C2303      C2308   1.410   1_554  A
C2304      C2305   1.411       .  A
C2304     Br2315   1.929       .  S
C2305      C2306   1.416       .  A
C2305     Br2311   1.931       .  S
C2306      C2307   1.414   1_554  A
C2307      C2308   1.409       .  A
C2307     Br2316   1.932       .  S
C2308     Br2312   1.932       .  S
C2317      C2318   1.423       .  A
C2317      C2322   1.419       .  A
C2318      C2319   1.412       .  A
C2318     Br2330   1.932       .  S
C2319      C2320   1.408       .  A
C2319     Br2334   1.929       .  S
C2320      C2323   1.488       .  S
C2320      C2321   1.405       .  A
C2321      C2322   1.405       .  A
C2321     Br2329   1.932       .  S
C2322     Br2333   1.924       .  S
C2323      C2324   1.409       .  A
C2323      C2328   1.409       .  A
C2324      C2325   1.409       .  A
C2324     Br2335   1.931       .  S
C2325      C2326   1.414       .  A
C2325     Br2331   1.931       .  S
C2326      C2327   1.416       .  A
C2327      C2328   1.409       .  A
C2327     Br2336   1.932       .  S
C2328     Br2332   1.931       .  S
C2337      C2338   1.412       .  A
C2337      C2342   1.412       .  A
C2338      C2339   1.410       .  A
C2338     Br2350   1.929       .  S
C2339      C2340   1.410       .  A
C2339     Br2354   1.929       .  S
C2340      C2343   1.489       .  S
C2340      C2341   1.409       .  A
C2341      C2342   1.408       .  A
C2341     Br2349   1.931       .  S
C2342     Br2353   1.931       .  S
C2343      C2344   1.405       .  A
C2343      C2348   1.405       .  A
C2344      C2345   1.410       .  A
C2344     Br2355   1.936       .  S
C2345      C2346   1.424       .  A
C2345     Br2351   1.925       .  S
C2346      C2347   1.422       .  A
C2347      C2348   1.410       .  A
C2347     Br2356   1.932       .  S
C2348     Br2352   1.931       .  S
C2357      C2358   1.419       .  A
C2357      C2362   1.418   1_565  A
C2358      C2359   1.412       .  A
C2358     Br2370   1.932       .  S
C2359      C2360   1.408       .  A
C2359     Br2374   1.929       .  S
C2360      C2363   1.494       .  S
C2360      C2361   1.407   1_565  A
C2361      C2362   1.412       .  A
C2361     Br2369   1.932       .  S
C2362     Br2373   1.921       .  S
C2363      C2364   1.412       .  A
C2363      C2368   1.408   1_565  A
C2364      C2365   1.413       .  A
C2364     Br2375   1.929       .  S
C2365      C2366   1.411       .  A
C2365     Br2371   1.928       .  S
C2366      C2367   1.415       .  A
C2367      C2368   1.410   1_565  A
C2367     Br2376   1.931   1_565  S
C2368     Br2372   1.930       .  S
C2377      C2378   1.420   1_545  A
C2377      C2382   1.421       .  A
C2378      C2379   1.411       .  A
C2378     Br2390   1.933       .  S
C2379      C2380   1.408   1_565  A
C2379     Br2394   1.932       .  S
C2380      C2383   1.492       .  S
C2380      C2381   1.408       .  A
C2381      C2382   1.411       .  A
C2381     Br2389   1.931       .  S
C2382     Br2393   1.934       .  S
C2383      C2384   1.407       .  A
C2383      C2388   1.412       .  A
C2384      C2385   1.406       .  A
C2384     Br2395   1.932       .  S
C2385      C2386   1.418       .  A
C2385     Br2391   1.930       .  S
C2386      C2387   1.409       .  A
C2387      C2388   1.414       .  A
C2387     Br2396   1.924   1_545  S
C2388     Br2392   1.927       .  S
C2397      C2398   1.422       .  A
C2397      C2402   1.420       .  A
C2398      C2399   1.407       .  A
C2398     Br2410   1.916       .  S
C2399      C2400   1.402       .  A
C2399     Br2414   1.936       .  S
C2400      C2403   1.488       .  S
C2400      C2401   1.407       .  A
C2401      C2402   1.413       .  A
C2401     Br2409   1.930       .  S
C2402     Br2413   1.928       .  S
C2403      C2404   1.408       .  A
C2403      C2408   1.409       .  A
C2404      C2405   1.406       .  A
C2404     Br2415   1.932       .  S
C2405      C2406   1.415       .  A
C2405     Br2411   1.934       .  S
C2406      C2407   1.415       .  A
C2407      C2408   1.412       .  A
C2407     Br2416   1.931       .  S
C2408     Br2412   1.928       .  S
C2417      C2418   1.421       .  A
C2417      C2422   1.419       .  A
C2418      C2419   1.415       .  A
C2418     Br2430   1.923       .  S
C2419      C2420   1.408       .  A
C2419     Br2434   1.930       .  S
C2420      C2423   1.496       .  S
C2420      C2421   1.406       .  A
C2421      C2422   1.410       .  A
C2421     Br2429   1.930       .  S
C2422     Br2433   1.929       .  S
C2423      C2424   1.409       .  A
C2423      C2428   1.410       .  A
C2424      C2425   1.414       .  A
C2424     Br2435   1.929       .  S
C2425      C2426   1.419       .  A
C2425     Br2431   1.931       .  S
C2426      C2427   1.416       .  A
C2427      C2428   1.411       .  A
C2427     Br2436   1.932       .  S
C2428     Br2432   1.932       .  S
C2437      C2438   1.418       .  A
C2437      C2442   1.410       .  A
C2438      C2439   1.405       .  A
C2438     Br2450   1.937       .  S
C2439      C2440   1.408       .  A
C2439     Br2454   1.933       .  S
C2440      C2443   1.489       .  S
C2440      C2441   1.411       .  A
C2441      C2442   1.411       .  A
C2441     Br2449   1.929       .  S
C2442     Br2453   1.925       .  S
C2443      C2444   1.410       .  A
C2443      C2448   1.410       .  A
C2444      C2445   1.407       .  A
C2444     Br2455   1.932       .  S
C2445      C2446   1.413       .  A
C2445     Br2451   1.932       .  S
C2446      C2447   1.415       .  A
C2447      C2448   1.410       .  A
C2447     Br2456   1.931       .  S
C2448     Br2452   1.931       .  S
C2457      C2458   1.409   1_556  A
C2457      C2462   1.413       .  A
C2458      C2459   1.406       .  A
C2458     Br2470   1.931       .  S
C2459      C2460   1.409   1_554  A
C2459     Br2474   1.928       .  S
C2460      C2463   1.481       .  S
C2460      C2461   1.408       .  A
C2461      C2462   1.405       .  A
C2461     Br2469   1.931       .  S
C2462     Br2473   1.933       .  S
C2463      C2464   1.408       .  A
C2463      C2468   1.410       .  A
C2464      C2465   1.406       .  A
C2464     Br2475   1.930       .  S
C2465      C2466   1.411       .  A
C2465     Br2471   1.930       .  S
C2466      C2467   1.409       .  A
C2467      C2468   1.406       .  A
C2467     Br2476   1.930   1_556  S
C2468     Br2472   1.930   1_556  S
C2477      C2478   1.421   1_554  A
C2477      C2482   1.421       .  A
C2478      C2479   1.406       .  A
C2478     Br2490   1.934       .  S
C2479      C2480   1.406   1_556  A
C2479     Br2494   1.931       .  S
C2480      C2483   1.479       .  S
C2480      C2481   1.405       .  A
C2481      C2482   1.405       .  A
C2481     Br2489   1.929       .  S
C2482     Br2493   1.935       .  S
C2483      C2484   1.407       .  A
C2483      C2488   1.408       .  A
C2484      C2485   1.405       .  A
C2484     Br2495   1.931       .  S
C2485      C2486   1.412       .  A
C2485     Br2491   1.929       .  S
C2486      C2487   1.413       .  A
C2487      C2488   1.407       .  A
C2487     Br2496   1.931       .  S
C2488     Br2492   1.930       .  S
C2497      C2498   1.415       .  A
C2497      C2502   1.413       .  A
C2498      C2499   1.411       .  A
C2498     Br2510   1.930       .  S
C2499      C2500   1.408       .  A
C2499     Br2514   1.929       .  S
C2500      C2503   1.490       .  S
C2500      C2501   1.409       .  A
C2501      C2502   1.410       .  A
C2501     Br2509   1.931       .  S
C2502     Br2513   1.928       .  S
C2503      C2504   1.403       .  A
C2503      C2508   1.407       .  A
C2504      C2505   1.406       .  A
C2504     Br2515   1.933       .  S
C2505      C2506   1.422       .  A
C2505     Br2511   1.930       .  S
C2506      C2507   1.424       .  A
C2507      C2508   1.415       .  A
C2507     Br2516   1.927       .  S
C2508     Br2512   1.930       .  S
C2517      C2518   1.419       .  A
C2517      C2522   1.417       .  A
C2518      C2519   1.410       .  A
C2518     Br2530   1.933       .  S
C2519      C2520   1.406       .  A
C2519     Br2534   1.931       .  S
C2520      C2523   1.488       .  S
C2520      C2521   1.409       .  A
C2521      C2522   1.410       .  A
C2521     Br2529   1.932       .  S
C2522     Br2533   1.932       .  S
C2523      C2524   1.406       .  A
C2523      C2528   1.411       .  A
C2524      C2525   1.405       .  A
C2524     Br2535   1.932       .  S
C2525      C2526   1.417       .  A
C2525     Br2531   1.932       .  S
C2526      C2527   1.409       .  A
C2527      C2528   1.412       .  A
C2527     Br2536   1.924       .  S
C2528     Br2532   1.927       .  S
C2537      C2538   1.412       .  A
C2537      C2542   1.413       .  A
C2538      C2539   1.412       .  A
C2538     Br2550   1.929       .  S
C2539      C2540   1.410       .  A
C2539     Br2554   1.929       .  S
C2540      C2543   1.498       .  S
C2540      C2541   1.412       .  A
C2541      C2542   1.414       .  A
C2541     Br2549   1.930       .  S
C2542     Br2553   1.929       .  S
C2543      C2544   1.404       .  A
C2543      C2548   1.408       .  A
C2544      C2545   1.410       .  A
C2544     Br2555   1.934       .  S
C2545      C2546   1.432       .  A
C2545     Br2551   1.938       .  S
C2546      C2547   1.424       .  A
C2547      C2548   1.418       .  A
C2547     Br2556   1.925       .  S
C2548     Br2552   1.930       .  S
C2557      C2558   1.413       .  A
C2557      C2562   1.413       .  A
C2558      C2559   1.406       .  A
C2558     Br2570   1.933       .  S
C2559      C2560   1.408       .  A
C2559     Br2574   1.931       .  S
C2560      C2563   1.483       .  S
C2560      C2561   1.408       .  A
C2561      C2562   1.407       .  A
C2561     Br2569   1.930       .  S
C2562     Br2573   1.929       .  S
C2563      C2564   1.405       .  A
C2563      C2568   1.406       .  A
C2564      C2565   1.403       .  A
C2564     Br2575   1.932       .  S
C2565      C2566   1.414       .  A
C2565     Br2571   1.926       .  S
C2566      C2567   1.420       .  A
C2567      C2568   1.411       .  A
C2567     Br2576   1.922       .  S
C2568     Br2572   1.932       .  S
C2577      C2578   1.415       .  A
C2577      C2582   1.417       .  A
C2578      C2579   1.412       .  A
C2578     Br2590   1.931       .  S
C2579      C2580   1.410       .  A
C2579     Br2594   1.931       .  S
C2580      C2583   1.497       .  S
C2580      C2581   1.409       .  A
C2581      C2582   1.414       .  A
C2581     Br2589   1.929       .  S
C2582     Br2593   1.931       .  S
C2583      C2584   1.408       .  A
C2583      C2588   1.407       .  A
C2584      C2585   1.412       .  A
C2584     Br2595   1.929       .  S
C2585      C2586   1.420       .  A
C2585     Br2591   1.932       .  S
C2586      C2587   1.420       .  A
C2587      C2588   1.414       .  A
C2587     Br2596   1.921       .  S
C2588     Br2592   1.931       .  S
C2597      C2598   1.414       .  A
C2597      C2602   1.419       .  A
C2598      C2599   1.408       .  A
C2598     Br2610   1.919       .  S
C2599      C2600   1.407       .  A
C2599     Br2614   1.930       .  S
C2600      C2603   1.500       .  S
C2600      C2601   1.411       .  A
C2601      C2602   1.419       .  A
C2601     Br2609   1.929       .  S
C2602     Br2613   1.920       .  S
C2603      C2604   1.412       .  A
C2603      C2608   1.411       .  A
C2604      C2605   1.414       .  A
C2604     Br2615   1.929       .  S
C2605      C2606   1.415       .  A
C2605     Br2611   1.931       .  S
C2606      C2607   1.414       .  A
C2607      C2608   1.413       .  A
C2607     Br2616   1.930   1_565  S
C2608     Br2612   1.929       .  S
C2617      C2618   1.417       .  A
C2617      C2622   1.426       .  A
C2618      C2619   1.419       .  A
C2618     Br2630   1.927       .  S
C2619      C2620   1.413       .  A
C2619     Br2634   1.927       .  S
C2620      C2623   1.501       .  S
C2620      C2621   1.406       .  A
C2621      C2622   1.408       .  A
C2621     Br2629   1.935       .  S
C2622     Br2633   1.935       .  S
C2623      C2624   1.413       .  A
C2623      C2628   1.410       .  A
C2624      C2625   1.416       .  A
C2624     Br2635   1.929       .  S
C2625      C2626   1.413       .  A
C2625     Br2631   1.928       .  S
C2626      C2627   1.415       .  A
C2627      C2628   1.412       .  A
C2627     Br2636   1.931       .  S
C2628     Br2632   1.930       .  S
C2637      C2638   1.435       .  A
C2637      C2642   1.432       .  A
C2638      C2639   1.416       .  A
C2638     Br2650   1.933       .  S
C2639      C2640   1.403       .  A
C2639     Br2654   1.933       .  S
C2640      C2643   1.493       .  S
C2640      C2641   1.400       .  A
C2641      C2642   1.410       .  A
C2641     Br2649   1.938       .  S
C2642     Br2653   1.924       .  S
C2643      C2644   1.406       .  A
C2643      C2648   1.412       .  A
C2644      C2645   1.409       .  A
C2644     Br2655   1.929       .  S
C2645      C2646   1.417       .  A
C2645     Br2651   1.933       .  S
C2646      C2647   1.414       .  A
C2647      C2648   1.412       .  A
C2647     Br2656   1.930       .  S
C2648     Br2652   1.930       .  S
C2657      C2658   1.418       .  A
C2657      C2662   1.420       .  A
C2658      C2659   1.410       .  A
C2658     Br2670   1.920       .  S
C2659      C2660   1.406       .  A
C2659     Br2674   1.934       .  S
C2660      C2663   1.490       .  S
C2660      C2661   1.406       .  A
C2661      C2662   1.410       .  A
C2661     Br2669   1.932       .  S
C2662     Br2673   1.927       .  S
C2663      C2664   1.408       .  A
C2663      C2668   1.407       .  A
C2664      C2665   1.410       .  A
C2664     Br2675   1.932       .  S
C2665      C2666   1.421       .  A
C2665     Br2671   1.934       .  S
C2666      C2667   1.421       .  A
C2667      C2668   1.409       .  A
C2667     Br2676   1.934       .  S
C2668     Br2672   1.933       .  S
C2677      C2678   1.428       .  A
C2677      C2682   1.423       .  A
C2678      C2679   1.411       .  A
C2678     Br2690   1.932       .  S
C2679      C2680   1.404       .  A
C2679     Br2694   1.931       .  S
C2680      C2683   1.488       .  S
C2680      C2681   1.405       .  A
C2681      C2682   1.410       .  A
C2681     Br2689   1.933       .  S
C2682     Br2693   1.924       .  S
C2683      C2684   1.407       .  A
C2683      C2688   1.407       .  A
C2684      C2685   1.409       .  A
C2684     Br2695   1.930       .  S
C2685      C2686   1.416       .  A
C2685     Br2691   1.932       .  S
C2686      C2687   1.420       .  A
C2687      C2688   1.410       .  A
C2687     Br2696   1.934   1_655  S
C2688     Br2692   1.931       .  S
C2697      C2698   1.419       .  A
C2697      C2702   1.421       .  A
C2698      C2699   1.411       .  A
C2698     Br2710   1.924       .  S
C2699      C2700   1.408       .  A
C2699     Br2714   1.932       .  S
C2700      C2703   1.491       .  S
C2700      C2701   1.407       .  A
C2701      C2702   1.408       .  A
C2701     Br2709   1.931       .  S
C2702     Br2713   1.936       .  S
C2703      C2704   1.409       .  A
C2703      C2708   1.411       .  A
C2704      C2705   1.411       .  A
C2704     Br2715   1.930       .  S
C2705      C2706   1.417       .  A
C2705     Br2711   1.932       .  S
C2706      C2707   1.415       .  A
C2707      C2708   1.409       .  A
C2707     Br2716   1.932       .  S
C2708     Br2712   1.933       .  S
C2717      C2718   1.418       .  A
C2717      C2722   1.419       .  A
C2718      C2719   1.406       .  A
C2718     Br2730   1.935       .  S
C2719      C2720   1.407       .  A
C2719     Br2734   1.932       .  S
C2720      C2723   1.488       .  S
C2720      C2721   1.409       .  A
C2721      C2722   1.411       .  A
C2721     Br2729   1.931       .  S
C2722     Br2733   1.933       .  S
C2723      C2724   1.403       .  A
C2723      C2728   1.402       .  A
C2724      C2725   1.411       .  A
C2724     Br2735   1.934       .  S
C2725      C2726   1.428       .  A
C2725     Br2731   1.928       .  S
C2726      C2727   1.431       .  A
C2727      C2728   1.410       .  A
C2727     Br2736   1.930       .  S
C2728     Br2732   1.936       .  S
C2737      C2738   1.414       .  A
C2737      C2742   1.411       .  A
C2738      C2739   1.407       .  A
C2738     Br2750   1.932       .  S
C2739      C2740   1.407       .  A
C2739     Br2754   1.931       .  S
C2740      C2743   1.487       .  S
C2740      C2741   1.410       .  A
C2741      C2742   1.410       .  A
C2741     Br2749   1.929       .  S
C2742     Br2753   1.930       .  S
C2743      C2744   1.405       .  A
C2743      C2748   1.404       .  A
C2744      C2745   1.413       .  A
C2744     Br2755   1.933       .  S
C2745      C2746   1.427       .  A
C2745     Br2751   1.928       .  S
C2746      C2747   1.421       .  A
C2747      C2748   1.407       .  A
C2747     Br2756   1.933       .  S
C2748     Br2752   1.932       .  S
C2757      C2758   1.410       .  A
C2757      C2762   1.410       .  A
C2758      C2759   1.408       .  A
C2758     Br2770   1.930       .  S
C2759      C2760   1.410       .  A
C2759     Br2774   1.930       .  S
C2760      C2763   1.485       .  S
C2760      C2761   1.408       .  A
C2761      C2762   1.408       .  A
C2761     Br2769   1.929       .  S
C2762     Br2773   1.929       .  S
C2763      C2764   1.404       .  A
C2763      C2768   1.401       .  A
C2764      C2765   1.413       .  A
C2764     Br2775   1.931       .  S
C2765      C2766   1.426       .  A
C2765     Br2771   1.926       .  S
C2766      C2767   1.432       .  A
C2767      C2768   1.406       .  A
C2767     Br2776   1.937       .  S
C2768     Br2772   1.936       .  S
C2777      C2778   1.417       .  A
C2777      C2782   1.419       .  A
C2778      C2779   1.409       .  A
C2778     Br2790   1.932       .  S
C2779      C2780   1.407       .  A
C2779     Br2794   1.930       .  S
C2780      C2783   1.484       .  S
C2780      C2781   1.406       .  A
C2781      C2782   1.407       .  A
C2781     Br2789   1.932       .  S
C2782     Br2793   1.934       .  S
C2783      C2784   1.404       .  A
C2783      C2788   1.404       .  A
C2784      C2785   1.408       .  A
C2784     Br2795   1.932       .  S
C2785      C2786   1.421       .  A
C2785     Br2791   1.923       .  S
C2786      C2787   1.425       .  A
C2787      C2788   1.408       .  A
C2787     Br2796   1.934       .  S
C2788     Br2792   1.931       .  S
C2797      C2798   1.409   1_565  A
C2797      C2802   1.415       .  A
C2798      C2799   1.409   1_545  A
C2798     Br2810   1.923       .  S
C2799      C2800   1.409       .  A
C2799     Br2814   1.929   1_565  S
C2800      C2803   1.482       .  S
C2800      C2801   1.406       .  A
C2801      C2802   1.403       .  A
C2801     Br2809   1.932       .  S
C2802     Br2813   1.932       .  S
C2803      C2804   1.407   1_565  A
C2803      C2808   1.409       .  A
C2804      C2805   1.405       .  A
C2804     Br2815   1.933       .  S
C2805      C2806   1.415   1_545  A
C2805     Br2811   1.933       .  S
C2806      C2807   1.413       .  A
C2807      C2808   1.409       .  A
C2807     Br2816   1.930       .  S
C2808     Br2812   1.930       .  S
C2817      C2818   1.420       .  A
C2817      C2822   1.416   1_545  A
C2818      C2819   1.408       .  A
C2818     Br2830   1.934       .  S
C2819      C2820   1.405       .  A
C2819     Br2834   1.930       .  S
C2820      C2823   1.483       .  S
C2820      C2821   1.406   1_545  A
C2821      C2822   1.407       .  A
C2821     Br2829   1.933       .  S
C2822     Br2833   1.925       .  S
C2823      C2824   1.409       .  A
C2823      C2828   1.410       .  A
C2824      C2825   1.410       .  A
C2824     Br2835   1.928   1_545  S
C2825      C2826   1.411       .  A
C2825     Br2831   1.929   1_545  S
C2826      C2827   1.405       .  A
C2827      C2828   1.403       .  A
C2827     Br2836   1.929       .  S
C2828     Br2832   1.932       .  S
C2837      C2838   1.421       .  A
C2837      C2842   1.423       .  A
C2838      C2839   1.411       .  A
C2838     Br2850   1.933       .  S
C2839      C2840   1.409       .  A
C2839     Br2854   1.930       .  S
C2840      C2843   1.493       .  S
C2840      C2841   1.407       .  A
C2841      C2842   1.410       .  A
C2841     Br2849   1.933       .  S
C2842     Br2853   1.928       .  S
C2843      C2844   1.410       .  A
C2843      C2848   1.412       .  A
C2844      C2845   1.408       .  A
C2844     Br2855   1.931       .  S
C2845      C2846   1.413       .  A
C2845     Br2851   1.931       .  S
C2846      C2847   1.412       .  A
C2847      C2848   1.412       .  A
C2847     Br2856   1.930       .  S
C2848     Br2852   1.930       .  S
C2857      C2858   1.417       .  A
C2857      C2862   1.417       .  A
C2858      C2859   1.408       .  A
C2858     Br2870   1.933       .  S
C2859      C2860   1.408       .  A
C2859     Br2874   1.931       .  S
C2860      C2863   1.489       .  S
C2860      C2861   1.409       .  A
C2861      C2862   1.410       .  A
C2861     Br2869   1.932       .  S
C2862     Br2873   1.932       .  S
C2863      C2864   1.408       .  A
C2863      C2868   1.407       .  A
C2864      C2865   1.412       .  A
C2864     Br2875   1.930       .  S
C2865      C2866   1.415       .  A
C2865     Br2871   1.924       .  S
C2866      C2867   1.418       .  A
C2867      C2868   1.407       .  A
C2867     Br2876   1.929       .  S
C2868     Br2872   1.934       .  S
C2877      C2878   1.410       .  A
C2877      C2882   1.411       .  A
C2878      C2879   1.413       .  A
C2878     Br2890   1.928       .  S
C2879      C2880   1.412       .  A
C2879     Br2894   1.928       .  S
C2880      C2883   1.499       .  S
C2880      C2881   1.412       .  A
C2881      C2882   1.413       .  A
C2881     Br2889   1.928       .  S
C2882     Br2893   1.928       .  S
C2883      C2884   1.410       .  A
C2883      C2888   1.407       .  A
C2884      C2885   1.417       .  A
C2884     Br2895   1.928       .  S
C2885      C2886   1.420       .  A
C2885     Br2891   1.933       .  S
C2886      C2887   1.416       .  A
C2887      C2888   1.410       .  A
C2887     Br2896   1.920       .  S
C2888     Br2892   1.933       .  S
C2897      C2898   1.414       .  A
C2897      C2902   1.416       .  A
C2898      C2899   1.413       .  A
C2898     Br2910   1.930       .  S
C2899      C2900   1.411       .  A
C2899     Br2914   1.929       .  S
C2900      C2903   1.499       .  S
C2900      C2901   1.412       .  A
C2901      C2902   1.412       .  A
C2901     Br2909   1.931       .  S
C2902     Br2913   1.932       .  S
C2903      C2904   1.407       .  A
C2903      C2908   1.409       .  A
C2904      C2905   1.413       .  A
C2904     Br2915   1.934       .  S
C2905      C2906   1.421       .  A
C2905     Br2911   1.919       .  S
C2906      C2907   1.421       .  A
C2907      C2908   1.415       .  A
C2907     Br2916   1.932       .  S
C2908     Br2912   1.931       .  S
C2917      C2918   1.411       .  A
C2917      C2922   1.410       .  A
C2918      C2919   1.409       .  A
C2918     Br2930   1.930       .  S
C2919      C2920   1.409       .  A
C2919     Br2934   1.929       .  S
C2920      C2923   1.491       .  S
C2920      C2921   1.411       .  A
C2921      C2922   1.411       .  A
C2921     Br2929   1.929       .  S
C2922     Br2933   1.929       .  S
C2923      C2924   1.403       .  A
C2923      C2928   1.405       .  A
C2924      C2925   1.411       .  A
C2924     Br2935   1.937       .  S
C2925      C2926   1.429       .  A
C2925     Br2931   1.926       .  S
C2926      C2927   1.425       .  A
C2927      C2928   1.413       .  A
C2927     Br2936   1.933       .  S
C2928     Br2932   1.931       .  S
C2937      C2938   1.407       .  A
C2937      C2942   1.411       .  A
C2938      C2939   1.408       .  A
C2938     Br2950   1.928       .  S
C2939      C2940   1.411       .  A
C2939     Br2954   1.930       .  S
C2940      C2943   1.487       .  S
C2940      C2941   1.409       .  A
C2941      C2942   1.409       .  A
C2941     Br2949   1.929       .  S
C2942     Br2953   1.929       .  S
C2943      C2944   1.403       .  A
C2943      C2948   1.407       .  A
C2944      C2945   1.407       .  A
C2944     Br2955   1.933       .  S
C2945      C2946   1.422       .  A
C2945     Br2951   1.928       .  S
C2946      C2947   1.422       .  A
C2947      C2948   1.413       .  A
C2947     Br2956   1.925       .  S
C2948     Br2952   1.932       .  S
C2957      C2958   1.419       .  A
C2957      C2962   1.417       .  A
C2958      C2959   1.409       .  A
C2958     Br2970   1.933       .  S
C2959      C2960   1.407       .  A
C2959     Br2974   1.932       .  S
C2960      C2963   1.483       .  S
C2960      C2961   1.407       .  A
C2961      C2962   1.406       .  A
C2961     Br2969   1.932       .  S
C2962     Br2973   1.934       .  S
C2963      C2964   1.410       .  A
C2963      C2968   1.406       .  A
C2964      C2965   1.411       .  A
C2964     Br2975   1.928       .  S
C2965      C2966   1.412       .  A
C2965     Br2971   1.925       .  S
C2966      C2967   1.415       .  A
C2967      C2968   1.401       .  A
C2967     Br2976   1.930       .  S
C2968     Br2972   1.935       .  S
