geometry optimzed in LAMMPS
_audit_creation_date              2020-11-30 
_audit_creation_method            'lammps2cif' 
_symmetry_space_group_name_H-M    'P1' 
_symmetry_Int_Tables_number       1 
_symmetry_cell_setting            triclinic 
loop_ 
_symmetry_equiv_pos_as_xyz 
  x,y,z 
_cell_length_a                    69.59882811 
_cell_length_b                    69.5445855863205 
_cell_length_c                    103.92410240331047 
_cell_angle_alpha                 90.04860140561351 
_cell_angle_beta                  89.94795295585307 
_cell_angle_gamma                 120.7843450829768 
loop_ 
_atom_site_label 
_atom_site_type_symbol 
_atom_site_fract_x 
_atom_site_fract_y 
_atom_site_fract_z 
_atom_site_charge 
N1          N  0.34371705  0.28823985  0.67588785    -0.27400
N2          N  0.36337934  0.29054359  0.67316475    -0.35200
C3          C  0.36636396  0.27648520  0.68064169     0.01000
C4          C  0.34768844  0.26476224  0.68836207     0.07000
C5          C  0.33368173  0.27262543  0.68512881    -0.06100
H6          H  0.38107307  0.27496315  0.68050876     0.07700
H7          H  0.31744306  0.26744669  0.68921739     0.08900
Cu8        Cu  0.38562774  0.31288425  0.65955590     0.44200
Cu9        Cu  0.33097371  0.30596461  0.66681786     0.42000
Cu10       Cu  0.36723982  0.34711209  0.64378342     0.43900
N11         N  0.40518612  0.33802577  0.64639075    -0.34700
N12         N  0.39861158  0.35102119  0.64114230    -0.29000
C13         C  0.41469623  0.36568867  0.63321950    -0.05100
C14         C  0.43220042  0.36163682  0.63325540     0.07100
C15         C  0.42560576  0.34395383  0.64175781     0.00900
H16         H  0.41346309  0.37803049  0.62752458     0.08600
H17         H  0.43471580  0.33567843  0.64417168     0.07600
N18         N  0.33418657  0.33836461  0.64653496    -0.36200
N19         N  0.32091492  0.32342770  0.65513352    -0.28400
C20         C  0.30042715  0.32086179  0.65429027    -0.03600
C21         C  0.30086637  0.33479380  0.64466988     0.05000
C22         C  0.32247845  0.34562426  0.63993338     0.03100
H23         H  0.28615548  0.30934320  0.66003621     0.08200
H24         H  0.32909473  0.35760954  0.63213964     0.07000
N25         N  0.92858556  0.28572682  0.66622470    -0.27400
N26         N  0.91210593  0.28895506  0.66284922    -0.35200
C27         C  0.89416179  0.27612711  0.67029634     0.01000
C28         C  0.89955628  0.26440188  0.67890283     0.07000
C29         C  0.92151226  0.27087124  0.67598191    -0.06100
H30         H  0.87854581  0.27594894  0.66979105     0.07700
H31         H  0.93183584  0.26571026  0.68089225     0.08900
Cu32       Cu  0.91506456  0.31246976  0.64931257     0.44200
Cu33       Cu  0.96050208  0.30254374  0.65793468     0.42000
Cu34       Cu  0.96992916  0.34645695  0.63577798     0.43900
N35         N  0.92366926  0.33963168  0.63722122    -0.34700
N36         N  0.94420079  0.35266104  0.63283711    -0.29000
C37         C  0.94494409  0.36921061  0.62578443    -0.05100
C38         C  0.92373379  0.36632072  0.62542286     0.07100
C39         C  0.91066114  0.34735159  0.63281897     0.00900
H40         H  0.95981673  0.38219481  0.62106794     0.08600
H41         H  0.89292628  0.33953194  0.63470045     0.07600
N42         N  0.99342593  0.33737893  0.63948860    -0.36200
N43         N  0.99042749  0.32170223  0.64780597    -0.28400
C44         C  0.00916610  0.32051705  0.64816228    -0.03600
C45         C  0.02458038  0.33610334  0.63958745     0.05000
C46         C  0.01389836  0.34635247  0.63423969     0.03100
H47         H  0.01142045  0.30916931  0.65421032     0.08200
H48         H  0.02053889  0.35942755  0.62703962     0.07000
N49         N  0.20201208  0.35174359  0.62036557    -0.27400
N50         N  0.21560532  0.35958433  0.61031625    -0.35200
C51         C  0.23341650  0.35737199  0.61246682     0.01000
C52         C  0.23105191  0.34768234  0.62440887     0.07000
C53         C  0.21094962  0.34432767  0.62917527    -0.06100
H54         H  0.24723411  0.36263095  0.60584952     0.07700
H55         H  0.20342360  0.33710421  0.63836948     0.08900
Cu56       Cu  0.21039836  0.37370217  0.59405613     0.44200
Cu57       Cu  0.17220065  0.35211103  0.62180539     0.42000
Cu58       Cu  0.16358070  0.38147065  0.59580056     0.43900
N59         N  0.20229068  0.38865721  0.57943248    -0.34700
N60         N  0.18516068  0.39182439  0.58029552    -0.29000
C61         C  0.18398271  0.40184004  0.56952712    -0.05100
C62         C  0.20118219  0.40510353  0.56149019     0.07100
C63         C  0.21249336  0.39654040  0.56801065     0.00900
H64         H  0.17134268  0.40611797  0.56761124     0.08600
H65         H  0.22693461  0.39598383  0.56468550     0.07600
N66         N  0.14213429  0.36784438  0.61127979    -0.36200
N67         N  0.14476191  0.35667517  0.62073606    -0.28400
C68         C  0.12715892  0.34914441  0.62880314    -0.03600
C69         C  0.11295258  0.35603449  0.62416334     0.05000
C70         C  0.12299291  0.36780259  0.61305908     0.03100
H71         H  0.12468749  0.33911775  0.63728199     0.08200
H72         H  0.11653459  0.37527046  0.60654153     0.07000
N73         N  0.92400456  0.64432881  0.67225203    -0.27400
N74         N  0.91006869  0.62241999  0.67169777    -0.35200
C75         C  0.89368924  0.61668363  0.68041753     0.01000
C76         C  0.89723825  0.63586653  0.68666470     0.07000
C77         C  0.91662805  0.65305527  0.68120355    -0.06100
H78         H  0.88000795  0.59977199  0.68199189     0.07700
H79         H  0.92465804  0.67069677  0.68345818     0.08900
Cu80       Cu  0.91303161  0.60104124  0.65877908     0.44200
Cu81       Cu  0.95268864  0.66176264  0.66098432     0.42000
Cu82       Cu  0.96383126  0.62720427  0.64019930     0.43900
N83         N  0.92058678  0.58395147  0.64504748    -0.34700
N84         N  0.93980812  0.59350493  0.63876823    -0.29000
C85         C  0.93980044  0.57871083  0.63044047    -0.05100
C86         C  0.91938042  0.55892696  0.63121742     0.07100
C87         C  0.90764012  0.56285428  0.64065508     0.00900
H88         H  0.95332873  0.58245167  0.62385975     0.08600
H89         H  0.89062126  0.55152261  0.64372893     0.07600
N90         N  0.98425928  0.66173034  0.64118415    -0.36200
N91         N  0.98034904  0.67459705  0.64880335    -0.28400
C92         C  0.99662876  0.69610633  0.64706918    -0.03600
C93         C  0.01131699  0.69666146  0.63787671     0.05000
C94         C  0.00297406  0.67463241  0.63435773     0.03100
H95         H  0.99766960  0.71024555  0.65208508     0.08200
H96         H  0.01000471  0.66843332  0.62735014     0.07000
N97         N  0.33743991  0.06500105  0.66964573    -0.27400
N98         N  0.35920935  0.07910782  0.66854654    -0.35200
C99         C  0.36550474  0.09556719  0.67730433     0.01000
C100        C  0.34677027  0.09182353  0.68415809     0.07000
C101        C  0.32930668  0.07228847  0.67898961    -0.06100
H102        H  0.38248951  0.10927055  0.67859158     0.07700
H103        H  0.31189983  0.06397380  0.68180644     0.08900
Cu104      Cu  0.37928215  0.07522966  0.65511012     0.44200
Cu105      Cu  0.31976519  0.03583829  0.65881318     0.42000
Cu106      Cu  0.35378790  0.02000047  0.64070187     0.43900
N107        N  0.39581896  0.06534325  0.64238412    -0.34700
N108        N  0.38709338  0.04459710  0.63816871    -0.29000
C109        C  0.40245772  0.04307466  0.63110482    -0.05100
C110        C  0.42171738  0.06403281  0.63043870     0.07100
C111        C  0.41671139  0.07773648  0.63768422     0.00900
H112        H  0.39964937  0.02775920  0.62669638     0.08600
H113        H  0.42739792  0.09549920  0.63936905     0.07600
N114        N  0.31914569  0.00053365  0.64169199    -0.36200
N115        N  0.30653723  0.00648169  0.64806279    -0.28400
C116        C  0.28486254  0.99065096  0.64639980    -0.03600
C117        C  0.28386690  0.97398446  0.63862180     0.05000
C118        C  0.30588236  0.98081239  0.63582360     0.03100
H119        H  0.27089765  0.99118705  0.65057055     0.08200
H120        H  0.31180686  0.97215594  0.62985173     0.07000
N121        N  0.12507768  0.79825533  0.61094845    -0.27400
N122        N  0.12017943  0.78464453  0.60101314    -0.35200
C123        C  0.10061056  0.76568553  0.60329881     0.01000
C124        C  0.09281565  0.76746774  0.61524804     0.07000
C125        C  0.10875927  0.78834754  0.61981997    -0.06100
H126        H  0.09263179  0.75162480  0.59675625     0.07700
H127        H  0.10846846  0.79582438  0.62889599     0.08900
Cu128      Cu  0.14050842  0.79277914  0.58484574     0.44200
Cu129      Cu  0.15387418  0.82960320  0.61185882     0.42000
Cu130      Cu  0.19148903  0.84757012  0.58411677     0.43900
N131        N  0.16325359  0.80404851  0.56971405    -0.34700
N132        N  0.18173689  0.82397959  0.56927636    -0.29000
C133        C  0.19283555  0.82545797  0.55831857    -0.05100
C134        C  0.18074495  0.80550296  0.55162553     0.07100
C135        C  0.16214975  0.79236422  0.55913306     0.00900
H136        H  0.20879256  0.83972831  0.55559099     0.08600
H137        H  0.14898854  0.77535845  0.55717075     0.07600
N138        N  0.19749847  0.86662361  0.60086322    -0.36200
N139        N  0.18389478  0.85989305  0.61092145    -0.28400
C140        C  0.19289837  0.87548951  0.62025477    -0.03600
C141        C  0.21308903  0.89291686  0.61587160     0.05000
C142        C  0.21549483  0.88679033  0.60355750     0.03100
H143        H  0.18539339  0.87413570  0.62958267     0.08200
H144        H  0.22949996  0.89614453  0.59712703     0.07000
N145        N  0.56346483  0.14203887  0.56772779    -0.36700
N146        N  0.52196869  0.11927850  0.58258280    -0.57200
N147        N  0.54187739  0.10059325  0.59914792    -0.36700
N148        N  0.58349021  0.12333601  0.58405521    -0.57200
C149        C  0.55331240  0.15317988  0.56375932     0.26900
C150        C  0.58516148  0.15435394  0.56406653     0.26900
C151        C  0.52136328  0.09110997  0.60468983     0.26900
C152        C  0.55379294  0.09314387  0.60548814     0.26900
C153        C  0.51559264  0.12872473  0.57349351     0.35500
C154        C  0.50399157  0.10693049  0.59016951     0.35500
C155        C  0.59998520  0.13302991  0.57518098     0.35500
C156        C  0.58901614  0.11166672  0.59208489     0.35500
C157        C  0.56872767  0.17271403  0.55751295    -0.22000
C158        C  0.58877695  0.17337911  0.55764395    -0.22000
C159        C  0.52026741  0.07739879  0.61469730    -0.22000
C160        C  0.54066093  0.07873323  0.61523035    -0.22000
C161        C  0.49324350  0.12194303  0.57509531    -0.23000
C162        C  0.48607247  0.10867108  0.58582237    -0.23000
C163        C  0.61613823  0.12750252  0.57754441    -0.23000
C164        C  0.60940672  0.11430368  0.58836079    -0.23000
C165        C  0.53026607  0.14570929  0.56492431    -0.18400
C166        C  0.60156110  0.14831253  0.56567203    -0.18400
C167        C  0.57600631  0.09847907  0.60267344    -0.18400
C168        C  0.50349979  0.09437442  0.60107347    -0.18400
H169        H  0.56578555  0.18511277  0.55316123     0.14500
H170        H  0.60426952  0.18637815  0.55345242     0.14500
H171        H  0.50618852  0.06736094  0.62096537     0.14500
H172        H  0.54518142  0.06985497  0.62197354     0.14500
H173        H  0.48340533  0.12698220  0.56954403     0.12800
H174        H  0.46951780  0.10138233  0.58992721     0.12800
H175        H  0.63148604  0.13293246  0.57226359     0.12800
H176        H  0.61847132  0.10729830  0.59286889     0.12800
H177        H  0.55550650  0.12576152  0.57124599     0.26100
H178        H  0.54776861  0.11205538  0.59174343     0.26100
N179        N  0.50258182  0.29611335  0.51653091    -0.27400
N180        N  0.50802233  0.28860163  0.52671625    -0.35200
C181        C  0.51547154  0.30399784  0.53606842     0.01000
C182        C  0.51557632  0.32271330  0.53156375     0.07000
C183        C  0.50720789  0.31710947  0.51907384    -0.06100
H184        H  0.52040840  0.30162240  0.54552453     0.07700
H185        H  0.50455462  0.32743144  0.51238242     0.08900
Cu186      Cu  0.50600676  0.25824255  0.52770466     0.44200
Cu187      Cu  0.48718682  0.27542740  0.50057269     0.42000
Cu188      Cu  0.47150458  0.21576437  0.50609671     0.43900
N189        N  0.50117949  0.22670692  0.52881049    -0.34700
N190        N  0.48705935  0.21008112  0.52137303    -0.29000
C191        C  0.48641895  0.19123052  0.52512935    -0.05100
C192        C  0.50115106  0.19653282  0.53534745     0.07100
C193        C  0.51031231  0.21922486  0.53728680     0.00900
H194        H  0.47606132  0.17497584  0.52075335     0.08600
H195        H  0.52259932  0.22956506  0.54443221     0.07600
N196        N  0.46315879  0.22761299  0.49001699    -0.36200
N197        N  0.46901021  0.24871454  0.48781780    -0.28400
C198        C  0.46119334  0.24989295  0.47616416    -0.03600
C199        C  0.45006915  0.22865254  0.47086044     0.05000
C200        C  0.45161571  0.21498075  0.47986488     0.03100
H201        H  0.46348145  0.26508243  0.47185489     0.08200
H202        H  0.44499444  0.19716084  0.47906549     0.07000
N203        N  0.57158631  0.44050805  0.56708780    -0.36700
N204        N  0.58371728  0.47907482  0.58309677    -0.57200
N205        N  0.54406790  0.45157061  0.59894805    -0.36700
N206        N  0.53115406  0.41364732  0.58236003    -0.57200
C207        C  0.58923017  0.45640445  0.56033138     0.26900
C208        C  0.56038201  0.42239998  0.55937273     0.26900
C209        C  0.55030672  0.47230475  0.60326846     0.26900
C210        C  0.52293922  0.43751053  0.60311227     0.26900
C211        C  0.60314517  0.48708208  0.57652948     0.35500
C212        C  0.58813547  0.49298134  0.59320471     0.35500
C213        C  0.53061561  0.39747602  0.57491126     0.35500
C214        C  0.51700605  0.40312746  0.59226003     0.35500
C215        C  0.58942862  0.44814548  0.54820946    -0.22000
C216        C  0.57108024  0.42682039  0.54754717    -0.22000
C217        C  0.53291097  0.47146884  0.61026474    -0.22000
C218        C  0.51561233  0.44947807  0.61016489    -0.22000
C219        C  0.61976513  0.50651172  0.58227628    -0.23000
C220        C  0.61034925  0.51010247  0.59290308    -0.23000
C221        C  0.51590479  0.37656146  0.58002389    -0.23000
C222        C  0.50739642  0.38015208  0.59108321    -0.23000
C223        C  0.60599453  0.47744026  0.56521516    -0.18400
C224        C  0.54223418  0.40126158  0.56316550    -0.18400
C225        C  0.51098444  0.41393886  0.60156020    -0.18400
C226        C  0.57212479  0.49127587  0.60227762    -0.18400
H227        H  0.60165921  0.45643462  0.54065850     0.14500
H228        H  0.56659910  0.41555732  0.53943124     0.14500
H229        H  0.53294870  0.48516732  0.61523994     0.14500
H230        H  0.49968601  0.44294729  0.61499978     0.14500
H231        H  0.63694647  0.51698700  0.57920259     0.12800
H232        H  0.61890386  0.52389286  0.59958023     0.12800
H233        H  0.51165577  0.36040468  0.57614859     0.12800
H234        H  0.49513207  0.36731309  0.59736148     0.12800
H235        H  0.56908204  0.44092200  0.57689527     0.26100
H236        H  0.55472829  0.44681098  0.59500044     0.26100
N237        N  0.72115090  0.53638230  0.52563845    -0.27400
N238        N  0.72027223  0.51810367  0.52994568    -0.35200
C239        C  0.70196135  0.50646471  0.53720516     0.01000
C240        C  0.69081744  0.51814355  0.53802281     0.07000
C241        C  0.70352968  0.53715284  0.53048783    -0.06100
H242        H  0.69732787  0.49070904  0.54178541     0.07700
H243        H  0.70041955  0.55065363  0.52876657     0.08900
Cu244      Cu  0.74525034  0.51087654  0.52751857     0.44200
Cu245      Cu  0.74608965  0.55766721  0.51267423     0.42000
Cu246      Cu  0.78973634  0.54250700  0.50613967     0.43900
N247        N  0.77315131  0.50786771  0.52676171    -0.34700
N248        N  0.78960311  0.51887040  0.51848605    -0.29000
C249        C  0.80516515  0.51310450  0.52042189    -0.05100
C250        C  0.79824826  0.49803084  0.53061748     0.07100
C251        C  0.77794018  0.49534127  0.53439326     0.00900
H252        H  0.82045749  0.51961795  0.51492995     0.08600
H253        H  0.76750919  0.48526001  0.54228678     0.07600
N254        N  0.78577511  0.56603478  0.49592341    -0.36200
N255        N  0.77053348  0.57165647  0.49822614    -0.28400
C256        C  0.77259595  0.58665551  0.48929163    -0.03600
C257        C  0.78988911  0.59064364  0.48103058     0.05000
C258        C  0.79785020  0.57734457  0.48555536     0.03100
H259        H  0.76184249  0.59361584  0.48860965     0.08200
H260        H  0.81115206  0.57560609  0.48141531     0.07000
N261        N  0.78117804  0.28050447  0.51422366    -0.27400
N262        N  0.76330879  0.28143496  0.51739415    -0.35200
C263        C  0.76965889  0.29991220  0.52444513     0.01000
C264        C  0.79260814  0.31078617  0.52633546     0.07000
C265        C  0.79930434  0.29790844  0.51963372    -0.06100
H266        H  0.75815014  0.30439797  0.52846856     0.07700
H267        H  0.81595686  0.30042722  0.51911806     0.08900
Cu268      Cu  0.73109900  0.25432226  0.51561399     0.44200
Cu269      Cu  0.77936634  0.25547686  0.50254780     0.42000
Cu270      Cu  0.72616527  0.20366252  0.50281418     0.43900
N271        N  0.70510897  0.22249737  0.52020838    -0.34700
N272        N  0.70397554  0.20385059  0.51628688    -0.29000
C273        C  0.68706577  0.18639844  0.52254012    -0.05100
C274        C  0.67705358  0.19448047  0.53075437     0.07100
C275        C  0.68891094  0.21742512  0.52892318     0.00900
H276        H  0.68268290  0.16915641  0.52140072     0.08600
H277        H  0.68642655  0.22965754  0.53389733     0.07600
N278        N  0.75074442  0.21147755  0.48888873    -0.36200
N279        N  0.77017208  0.23053519  0.48888375    -0.28400
C280        C  0.78162709  0.23161116  0.47821625    -0.03600
C281        C  0.76888999  0.21229737  0.47116082     0.05000
C282        C  0.74941757  0.19984327  0.47820433     0.03100
H283        H  0.79780382  0.24568565  0.47561469     0.08200
H284        H  0.73508705  0.18387403  0.47555208     0.07000
N285        N  0.84577606  0.42584845  0.56168962    -0.36700
N286        N  0.86753566  0.40745029  0.57668608    -0.57200
N287        N  0.88488908  0.44575069  0.59372637    -0.36700
N288        N  0.86359089  0.46428384  0.57845593    -0.57200
C289        C  0.84341042  0.40927857  0.55384091     0.26900
C290        C  0.84230478  0.44001753  0.55452069     0.26900
C291        C  0.89742015  0.43685091  0.59719625     0.26900
C292        C  0.89544361  0.46713195  0.59799987     0.26900
C293        C  0.85396620  0.38932789  0.56946412     0.35500
C294        C  0.87480551  0.40006788  0.58648176     0.35500
C295        C  0.84835395  0.46689610  0.57187790     0.35500
C296        C  0.86893091  0.47731666  0.58903671     0.35500
C297        C  0.83825602  0.41287395  0.54151813    -0.22000
C298        C  0.83793049  0.43249554  0.54190017    -0.22000
C299        C  0.91627781  0.45277246  0.60372252    -0.22000
C300        C  0.91509184  0.47197962  0.60417527    -0.22000
C301        C  0.85290642  0.37039480  0.57455752    -0.23000
C302        C  0.86600269  0.37717843  0.58540461    -0.23000
C303        C  0.84388396  0.48163151  0.57832514    -0.23000
C304        C  0.85692246  0.48822288  0.58923464    -0.23000
C305        C  0.84360683  0.39000270  0.55793013    -0.18400
C306        C  0.84042713  0.45794566  0.55948654    -0.18400
C307        C  0.88636524  0.48128636  0.59761193    -0.18400
C308        C  0.89095708  0.41412169  0.59562604    -0.18400
H309        H  0.83465850  0.40229333  0.53315773     0.14500
H310        H  0.83392963  0.43983181  0.53392535     0.14500
H311        H  0.92922776  0.45058892  0.60797232     0.14500
H312        H  0.92692476  0.48748220  0.60888716     0.14500
H313        H  0.84383541  0.35350969  0.57079721     0.12800
H314        H  0.86905587  0.36655440  0.59163007     0.12800
H315        H  0.83284181  0.48744728  0.57530791     0.12800
H316        H  0.85795500  0.50016888  0.59629194     0.12800
H317        H  0.84644875  0.42565944  0.57168100     0.26100
H318        H  0.86857601  0.43679232  0.59026922     0.26100
N319        N  0.70311229  0.06228484  0.67466987    -0.27400
N320        N  0.69878502  0.07819666  0.67172716    -0.35200
C321        C  0.71137301  0.09622580  0.67916289     0.01000
C322        C  0.72428899  0.09148568  0.68715558     0.07000
C323        C  0.71868505  0.06985518  0.68403122    -0.06100
H324        H  0.71112648  0.11164443  0.67879217     0.07700
H325        H  0.72535903  0.06030370  0.68829830     0.08900
Cu326      Cu  0.67523993  0.07440505  0.65813365     0.44200
Cu327      Cu  0.68706839  0.03078068  0.66599127     0.42000
Cu328      Cu  0.63695129  0.01736548  0.64822395     0.43900
N329        N  0.64747809  0.06501135  0.64659769    -0.34700
N330        N  0.63235108  0.04394790  0.64407484    -0.29000
C331        C  0.61572339  0.04335553  0.63717195    -0.05100
C332        C  0.62088993  0.06514784  0.63485100     0.07100
C333        C  0.64124105  0.07838728  0.64099085     0.00900
H334        H  0.60118387  0.02811218  0.63384938     0.08600
H335        H  0.65104981  0.09647403  0.64120294     0.07600
N336        N  0.64931467  0.99586090  0.64971003    -0.36200
N337        N  0.66788598  0.00088346  0.65594058    -0.28400
C338        C  0.67270495  0.98471051  0.65372150    -0.03600
C339        C  0.65636945  0.96878737  0.64573809     0.05000
C340        C  0.64184289  0.97640310  0.64339269     0.03100
H341        H  0.68756498  0.98506558  0.65713095     0.08200
H342        H  0.62765799  0.96904014  0.63693420     0.07000
N343        N  0.69873527  0.65068081  0.67738321    -0.27400
N344        N  0.69437472  0.63078329  0.67334659    -0.35200
C345        C  0.70805612  0.62543707  0.67944180     0.01000
C346        C  0.72163852  0.64273338  0.68771420     0.07000
C347        C  0.71524958  0.65844521  0.68617917    -0.06100
H348        H  0.70785915  0.60990242  0.67813101     0.07700
H349        H  0.72190716  0.67422004  0.69120803     0.08900
Cu350      Cu  0.66917330  0.61089243  0.66030616     0.44200
Cu351      Cu  0.68224559  0.66656478  0.67069962     0.42000
Cu352      Cu  0.63359527  0.63177503  0.65112146     0.43900
N353        N  0.64083385  0.59294358  0.64887349    -0.34700
N354        N  0.62713777  0.60025389  0.64613462    -0.29000
C355        C  0.61033401  0.58507339  0.63875177    -0.05100
C356        C  0.61371482  0.56739472  0.63654116     0.07100
C357        C  0.63322826  0.57297125  0.64313524     0.00900
H358        H  0.59699199  0.58708967  0.63497349     0.08600
H359        H  0.64154323  0.56342423  0.64349741     0.07600
N360        N  0.64664208  0.66566988  0.65384955    -0.36200
N361        N  0.66456424  0.67860735  0.66086977    -0.28400
C362        C  0.67005501  0.70006971  0.65936481    -0.03600
C363        C  0.65477530  0.70048100  0.65103938     0.05000
C364        C  0.64024271  0.67846291  0.64771292     0.03100
H365        H  0.68464555  0.71433932  0.66351121     0.08200
H366        H  0.62674381  0.67231219  0.64080406     0.07000
N367        N  0.64945133  0.80144661  0.61934212    -0.27400
N368        N  0.64101101  0.78681959  0.60981653    -0.35200
C369        C  0.64137916  0.76832244  0.61308255     0.01000
C370        C  0.65045070  0.77140139  0.62526071     0.07000
C371        C  0.65536522  0.79257124  0.62898124    -0.06100
H372        H  0.63520918  0.75357763  0.60710390     0.07700
H373        H  0.66258411  0.80083998  0.63802358     0.08900
Cu374      Cu  0.62866019  0.79228750  0.59297656     0.44200
Cu375      Cu  0.65208032  0.83257734  0.61856765     0.42000
Cu376      Cu  0.63309406  0.84624371  0.58905934     0.43900
N377        N  0.61636422  0.80068038  0.57717024    -0.34700
N378        N  0.61801463  0.82035642  0.57564398    -0.29000
C379        C  0.60819569  0.82021958  0.56445574    -0.05100
C380        C  0.60005832  0.79950457  0.55870240     0.07100
C381        C  0.60551696  0.78754720  0.56702580     0.00900
H382        H  0.60713261  0.83417764  0.56074887     0.08600
H383        H  0.60189450  0.77055950  0.56579573     0.07600
N384        N  0.64587735  0.86754959  0.60491520    -0.36200
N385        N  0.65247203  0.86234941  0.61562797    -0.28400
C386        C  0.65768322  0.87849289  0.62441878    -0.03600
C387        C  0.65423462  0.89464815  0.61902725     0.05000
C388        C  0.64679593  0.88721897  0.60664204     0.03100
H389        H  0.66259955  0.87798734  0.63422774     0.08200
H390        H  0.64128676  0.89491367  0.59966437     0.07000
O391        O  0.80114250  0.66370627  0.75462259    -0.73000
O392        O  0.84350638  0.66148756  0.72876134    -0.74000
O393        O  0.80268340  0.66258972  0.72749587    -0.62600
O394        O  0.84184707  0.66298383  0.75615567    -0.71000
O395        O  0.82174322  0.62594197  0.75697129    -0.70600
O396        O  0.78396964  0.62556622  0.72764498    -0.61800
O397        O  0.82406499  0.62438261  0.72971947    -0.74300
O398        O  0.78143334  0.62655067  0.75481537    -0.73100
Cu399      Cu  0.82305954  0.66401912  0.74171466     1.04600
Cu400      Cu  0.80218905  0.62436510  0.74228739     1.04300
C401        C  0.78450136  0.64534773  0.75868484     0.93200
C402        C  0.84035596  0.64246266  0.72518776     0.92300
C403        C  0.78663359  0.64397136  0.72330681     0.84500
C404        C  0.83786515  0.64451873  0.76116885     0.90700
O405        O  0.80626075  0.15025836  0.72747499    -0.73000
O406        O  0.85131446  0.19184654  0.75339466    -0.74000
O407        O  0.80917963  0.15095526  0.75472603    -0.62600
O408        O  0.84834464  0.19175078  0.72604364    -0.71000
O409        O  0.82994864  0.20972841  0.72659519    -0.70600
O410        O  0.79220143  0.17053632  0.75606876    -0.61800
O411        O  0.83454626  0.21168637  0.75413132    -0.74300
O412        O  0.78822076  0.16875313  0.72867004    -0.73100
Cu413      Cu  0.82939222  0.17059436  0.74036370     1.04600
Cu414      Cu  0.81065269  0.19088259  0.74141978     1.04300
C415        C  0.78996921  0.15264152  0.72406135     0.93200
C416        C  0.85012334  0.20831228  0.75785252     0.92300
C417        C  0.79440348  0.15427278  0.75986628     0.84500
C418        C  0.84527809  0.20714533  0.72161718     0.90700
O419        O  0.31909871  0.13898370  0.75572322    -0.73000
O420        O  0.31941748  0.18223223  0.72941497    -0.74000
O421        O  0.32120771  0.14199536  0.72838825    -0.62600
O422        O  0.31670234  0.17913097  0.75667557    -0.71000
O423        O  0.35374968  0.19931117  0.75780593    -0.70600
O424        O  0.35825723  0.16225381  0.72941457    -0.61800
O425        O  0.35642053  0.20208562  0.73063271    -0.74300
O426        O  0.35609199  0.15952540  0.75668007    -0.73100
Cu427      Cu  0.31778277  0.15984944  0.74253411     1.04600
Cu428      Cu  0.35737241  0.18146813  0.74369486     1.04300
C429        C  0.33773364  0.14229773  0.76014017     0.93200
C430        C  0.33813732  0.19915061  0.72598688     0.92300
C431        C  0.34039021  0.14622135  0.72446258     0.84500
C432        C  0.33453016  0.19535976  0.76150656     0.90700
N433        N  0.33123256  0.28409006  0.80867620    -0.27400
N434        N  0.35224067  0.28960308  0.81052364    -0.35200
C435        C  0.35625317  0.27533380  0.80400013     0.01000
C436        C  0.33682134  0.25977692  0.79782223     0.07000
C437        C  0.32123477  0.26581665  0.80107027    -0.06100
H438        H  0.37237768  0.27657127  0.80351947     0.07700
H439        H  0.30401240  0.25778659  0.79793344     0.08900
Cu440      Cu  0.37524015  0.31669900  0.82134040     0.44200
Cu441      Cu  0.31791344  0.30283387  0.81597987     0.42000
Cu442      Cu  0.35998149  0.35630553  0.83038741     0.43900
N443        N  0.39682675  0.34613809  0.83088973    -0.34700
N444        N  0.39184084  0.36171321  0.83329575    -0.29000
C445        C  0.40908607  0.37880506  0.83950286    -0.05100
C446        C  0.42553477  0.37344502  0.84147014     0.07100
C447        C  0.41708993  0.35257193  0.83581698     0.00900
H448        H  0.40913368  0.39354119  0.84288198     0.08600
H449        H  0.42468906  0.34234916  0.83576387     0.07600
N450        N  0.32583825  0.34413039  0.83040822    -0.36200
N451        N  0.31048479  0.32495967  0.82521215    -0.28400
C452        C  0.29009113  0.32176736  0.82790290    -0.03600
C453        C  0.29280881  0.33967491  0.83523179     0.05000
C454        C  0.31566234  0.35343424  0.83661801     0.03100
H455        H  0.27444718  0.30714893  0.82510843     0.08200
H456        H  0.32427080  0.36872838  0.84217223     0.07000
N457        N  0.93651445  0.28420662  0.81248088    -0.27400
N458        N  0.92607558  0.29547774  0.81081369    -0.35200
C459        C  0.91106903  0.28589505  0.80126604     0.01000
C460        C  0.91206827  0.26780728  0.79658590     0.07000
C461        C  0.92844707  0.26726494  0.80390370    -0.06100
H462        H  0.89990391  0.29146193  0.79809971     0.07700
H463        H  0.93398112  0.25533513  0.80311484     0.08900
Cu464      Cu  0.93107884  0.32278344  0.82174607     0.44200
Cu465      Cu  0.96113787  0.29202651  0.82643465     0.42000
Cu466      Cu  0.96853319  0.33643664  0.84768013     0.43900
N467        N  0.93457493  0.34522473  0.83609360    -0.34700
N468        N  0.94698260  0.34842091  0.84635584    -0.29000
C469        C  0.94335776  0.36055582  0.85501967    -0.05100
C470        C  0.92830703  0.36591407  0.84987246     0.07100
C471        C  0.92332389  0.35604365  0.83774308     0.00900
H472        H  0.95072499  0.36462872  0.86451896     0.08600
H473        H  0.91183987  0.35609683  0.83076501     0.07600
N474        N  0.99026161  0.32459100  0.84686657    -0.36200
N475        N  0.98699063  0.30725733  0.83992299    -0.28400
C476        C  0.00373017  0.30335518  0.84237012    -0.03600
C477        C  0.01851713  0.31940734  0.85103547     0.05000
C478        C  0.00940907  0.33267236  0.85347176     0.03100
H479        H  0.00508776  0.28992827  0.83807812     0.08200
H480        H  0.01623716  0.34730815  0.85958446     0.07000
N481        N  0.20367326  0.36155329  0.86962476    -0.27400
N482        N  0.21563276  0.36321439  0.87991111    -0.35200
C483        C  0.23272429  0.36058338  0.87633369     0.01000
C484        C  0.23144665  0.35705372  0.86319253     0.07000
C485        C  0.21287768  0.35780961  0.85923070    -0.06100
H486        H  0.24478762  0.36053659  0.88287220     0.07700
H487        H  0.20601156  0.35487415  0.84960976     0.08900
Cu488      Cu  0.20731445  0.36702690  0.89855345     0.44200
Cu489      Cu  0.17345430  0.36085901  0.87039996     0.42000
Cu490      Cu  0.14914245  0.34726536  0.90226927     0.43900
N491        N  0.19360414  0.36966192  0.91574220    -0.34700
N492        N  0.17200193  0.36205303  0.91714507    -0.29000
C493        C  0.16847353  0.36828369  0.92875652    -0.05100
C494        C  0.18882524  0.38028890  0.93497107     0.07100
C495        C  0.20441358  0.38089660  0.92644211     0.00900
H496        H  0.15254321  0.36560688  0.93206530     0.08600
H497        H  0.22239093  0.38998894  0.92761643     0.07600
N498        N  0.13082206  0.34194767  0.88555211    -0.36200
N499        N  0.14008850  0.34992272  0.87422914    -0.28400
C500        C  0.12411102  0.34738534  0.86594264    -0.03600
C501        C  0.10354791  0.33660411  0.87221217     0.05000
C502        C  0.10862421  0.33317214  0.88461070     0.03100
H503        H  0.12735534  0.35318346  0.85609218     0.08200
H504        H  0.09713741  0.32518177  0.89251451     0.07000
N505        N  0.56538769  0.13566248  0.91565312    -0.36700
N506        N  0.52639208  0.11883330  0.89865443    -0.57200
N507        N  0.54373591  0.09766087  0.88246335    -0.36700
N508        N  0.58307640  0.11524787  0.89903162    -0.57200
C509        C  0.55679741  0.14829168  0.91953982     0.26900
C510        C  0.58676045  0.14578176  0.91994997     0.26900
C511        C  0.52704850  0.09589325  0.87492786     0.26900
C512        C  0.55787866  0.09497119  0.87478677     0.26900
C513        C  0.52002558  0.12751540  0.90823246     0.35500
C514        C  0.50806178  0.10631247  0.89131955     0.35500
C515        C  0.59803012  0.12157377  0.90873676     0.35500
C516        C  0.58696215  0.10215367  0.89116867     0.35500
C517        C  0.57265745  0.16624618  0.92673980    -0.22000
C518        C  0.59157590  0.16468900  0.92696788    -0.22000
C519        C  0.53045749  0.09172157  0.86233842    -0.22000
C520        C  0.54994687  0.09114787  0.86224643    -0.22000
C521        C  0.49754276  0.12049798  0.90698912    -0.23000
C522        C  0.48989426  0.10684565  0.89636307    -0.23000
C523        C  0.61135268  0.11228221  0.90711135    -0.23000
C524        C  0.60434730  0.09997175  0.89596407    -0.23000
C525        C  0.53475215  0.14357944  0.91721312    -0.18400
C526        C  0.60187599  0.13814583  0.91791580    -0.18400
C527        C  0.57698203  0.09452543  0.87896175    -0.18400
C528        C  0.50828063  0.09683452  0.87929555    -0.18400
H529        H  0.57084080  0.17919347  0.93134199     0.14500
H530        H  0.60712541  0.17622130  0.93173226     0.14500
H531        H  0.51992181  0.08920977  0.85409764     0.14500
H532        H  0.55731782  0.08804411  0.85391625     0.14500
H533        H  0.48778262  0.12512567  0.91294810     0.12800
H534        H  0.47311950  0.09899496  0.89248826     0.12800
H535        H  0.62524363  0.11486280  0.91305435     0.12800
H536        H  0.61174949  0.09111232  0.89163372     0.12800
H537        H  0.55651850  0.12004718  0.91128617     0.26100
H538        H  0.54414035  0.09816309  0.89246112     0.26100
N539        N  0.79748771  0.27870707  0.95973694    -0.27400
N540        N  0.78116847  0.27684978  0.95233137    -0.35200
C541        C  0.78851145  0.29615987  0.94589185     0.01000
C542        C  0.81050277  0.31085390  0.94935247     0.07000
C543        C  0.81565193  0.29926070  0.95818346    -0.06100
H544        H  0.77860530  0.29927228  0.93912568     0.07700
H545        H  0.83135030  0.30536255  0.96318771     0.08900
Cu546      Cu  0.74972303  0.24790369  0.95102159     0.44200
Cu547      Cu  0.79398710  0.25300838  0.97159618     0.42000
Cu548      Cu  0.74342154  0.19868012  0.96656634     0.43900
N549        N  0.72093592  0.21634165  0.94965063    -0.34700
N550        N  0.71921533  0.19806743  0.95466235    -0.29000
C551        C  0.69948294  0.18021691  0.95116964    -0.05100
C552        C  0.68800199  0.18758144  0.94370711     0.07100
C553        C  0.70212752  0.21063472  0.94306086     0.00900
H554        H  0.69407188  0.16310677  0.95372585     0.08600
H555        H  0.69915149  0.22238028  0.93791442     0.07600
N556        N  0.76717741  0.20486331  0.98053747    -0.36200
N557        N  0.78537488  0.22461219  0.98249085    -0.28400
C558        C  0.79594740  0.22339410  0.99301620    -0.03600
C559        C  0.78378006  0.20190809  0.99793826     0.05000
C560        C  0.76569030  0.19061352  0.98977228     0.03100
H561        H  0.81091872  0.23734472  0.99707894     0.08200
H562        H  0.75189790  0.17360232  0.99082097     0.07000
N563        N  0.71750555  0.06798547  0.81444653    -0.27400
N564        N  0.70589017  0.07809424  0.81290554    -0.35200
C565        C  0.71589816  0.09415738  0.80389919     0.01000
C566        C  0.73466252  0.09421831  0.79945004     0.07000
C567        C  0.73515959  0.07736949  0.80632760    -0.06100
H568        H  0.70998187  0.10508990  0.80082983     0.07700
H569        H  0.74757818  0.07247358  0.80557143     0.08900
Cu570      Cu  0.67715664  0.07051083  0.82323887     0.44200
Cu571      Cu  0.70894104  0.04212471  0.82782932     0.42000
Cu572      Cu  0.66489065  0.03348054  0.84985875     0.43900
N573        N  0.65176664  0.06318349  0.83643797    -0.34700
N574        N  0.64841421  0.05058316  0.84665768    -0.29000
C575        C  0.63324367  0.05121522  0.85433901    -0.05100
C576        C  0.62638205  0.06469740  0.84867544     0.07100
C577        C  0.63834823  0.07182154  0.83722634     0.00900
H578        H  0.62828560  0.04318928  0.86365244     0.08600
H579        H  0.63810303  0.08324559  0.83026613     0.07600
N580        N  0.67974312  0.01437234  0.85006904    -0.36200
N581        N  0.69571135  0.01707809  0.84204666    -0.28400
C582        C  0.70043112  0.00083434  0.84435685    -0.03600
C583        C  0.68664310  0.98733647  0.85421402     0.05000
C584        C  0.67384310  0.99649404  0.85759903     0.03100
H585        H  0.71253285  0.99861733  0.83904264     0.08200
H586        H  0.66078066  0.99028805  0.86480171     0.07000
N587        N  0.70728036  0.65628059  0.81082621    -0.27400
N588        N  0.69585930  0.63413329  0.81047272    -0.35200
C589        C  0.70502559  0.62709583  0.80161744     0.01000
C590        C  0.72299999  0.64565579  0.79606523     0.07000
C591        C  0.72396815  0.66388585  0.80211711    -0.06100
H592        H  0.69931822  0.60973116  0.79955985     0.07700
H593        H  0.73624254  0.68135269  0.80053502     0.08900
Cu594      Cu  0.66915345  0.61415500  0.82255489     0.44200
Cu595      Cu  0.70015439  0.67504069  0.82361153     0.42000
Cu596      Cu  0.65975787  0.64245162  0.84853927     0.43900
N597        N  0.64619160  0.59754125  0.83719381    -0.34700
N598        N  0.64370380  0.60795307  0.84711776    -0.29000
C599        C  0.62966440  0.59266667  0.85565037    -0.05100
C600        C  0.62279776  0.57153944  0.85083464     0.07100
C601        C  0.63348257  0.57532114  0.83904326     0.00900
H602        H  0.62535458  0.59666204  0.86487476     0.08600
H603        H  0.63278225  0.56285648  0.83251314     0.07600
N604        N  0.67444467  0.67677124  0.84660140    -0.36200
N605        N  0.68887354  0.68881451  0.83746476    -0.28400
C606        C  0.69378895  0.71019812  0.83855399    -0.03600
C607        C  0.68182822  0.71155736  0.84885068     0.05000
C608        C  0.66985929  0.69006622  0.85371832     0.03100
H609        H  0.70484496  0.72363824  0.83216692     0.08200
H610        H  0.65826340  0.68439580  0.86171323     0.07000
N611        N  0.67492191  0.81381554  0.87783358    -0.27400
N612        N  0.66964984  0.80119800  0.88828468    -0.35200
C613        C  0.67036487  0.78266604  0.88549321     0.01000
C614        C  0.67641911  0.78367946  0.87273098     0.07000
C615        C  0.67914575  0.80359247  0.86814469    -0.06100
H616        H  0.66646741  0.76927927  0.89221400     0.07700
H617        H  0.68359170  0.81003536  0.85844845     0.08900
Cu618      Cu  0.66083532  0.80893442  0.90590388     0.44200
Cu619      Cu  0.67590765  0.84431766  0.87702685     0.42000
Cu620      Cu  0.66501592  0.86261047  0.90719522     0.43900
N621        N  0.65093935  0.82001534  0.92184019    -0.34700
N622        N  0.65273154  0.83987561  0.92223327    -0.29000
C623        C  0.64293141  0.84143720  0.93301586    -0.05100
C624        C  0.63455981  0.82164149  0.93978106     0.07100
C625        C  0.63992068  0.80839799  0.93243307     0.00900
H626        H  0.64077682  0.85538402  0.93534963     0.08600
H627        H  0.63492528  0.79113647  0.93424230     0.07600
N628        N  0.67327354  0.88136860  0.89045601    -0.36200
N629        N  0.67673090  0.87457818  0.87925909    -0.28400
C630        C  0.68046481  0.89006552  0.87025024    -0.03600
C631        C  0.67940229  0.90738504  0.87613297     0.05000
C632        C  0.67480442  0.90130596  0.88891239     0.03100
H633        H  0.68353721  0.88875016  0.86017353     0.08200
H634        H  0.67228426  0.91048159  0.89648290     0.07000
N635        N  0.84895372  0.42453305  0.91448855    -0.36700
N636        N  0.86334472  0.46109445  0.89595895    -0.57200
N637        N  0.88356094  0.44164025  0.88037912    -0.36700
N638        N  0.86983343  0.40534001  0.89914746    -0.57200
C639        C  0.83364819  0.43092386  0.91588462     0.26900
C640        C  0.83930727  0.40322680  0.91885479     0.26900
C641        C  0.89148056  0.46132414  0.87404366     0.26900
C642        C  0.89234632  0.43037334  0.87465706     0.26900
C643        C  0.85329189  0.46736129  0.90471735     0.35500
C644        C  0.87442931  0.47842773  0.88778487     0.35500
C645        C  0.86033404  0.38905695  0.90819511     0.35500
C646        C  0.87691474  0.39726536  0.88955626     0.35500
C647        C  0.81388365  0.41331617  0.92066777    -0.22000
C648        C  0.81719746  0.39555380  0.92209415    -0.22000
C649        C  0.90508264  0.46227891  0.86399707    -0.22000
C650        C  0.90543933  0.44272633  0.86429863    -0.22000
C651        C  0.85814678  0.48895649  0.90222379    -0.23000
C652        C  0.87134006  0.49589001  0.89139911    -0.23000
C653        C  0.86022446  0.37011764  0.90387558    -0.23000
C654        C  0.87141569  0.37557350  0.89239685    -0.23000
C655        C  0.83766507  0.45275417  0.91385915    -0.18400
C656        C  0.85004463  0.39058971  0.91968883    -0.18400
C657        C  0.88886971  0.40919578  0.87840656    -0.18400
C658        C  0.88727343  0.47876506  0.87710096    -0.18400
H659        H  0.79861959  0.41325570  0.92277559     0.14500
H660        H  0.80478643  0.37895530  0.92532164     0.14500
H661        H  0.91398898  0.47573547  0.85716154     0.14500
H662        H  0.91459791  0.43830117  0.85770057     0.14500
H663        H  0.85215879  0.49841158  0.90736657     0.12800
H664        H  0.87780057  0.51193045  0.88671343     0.12800
H665        H  0.85231665  0.35369218  0.90820598     0.12800
H666        H  0.87453223  0.36446518  0.88666151     0.12800
H667        H  0.86577685  0.43483286  0.91204921     0.26100
H668        H  0.87222606  0.43572754  0.88789023     0.26100
N669        N  0.70479759  0.51010725  0.95789782    -0.27400
N670        N  0.70507017  0.49321406  0.95224879    -0.35200
C671        C  0.68710426  0.48230944  0.94459628     0.01000
C672        C  0.67485940  0.49284802  0.94530524     0.07000
C673        C  0.68652440  0.51041562  0.95388113    -0.06100
H674        H  0.68352553  0.46805463  0.93866961     0.07700
H675        H  0.68228654  0.52274352  0.95676916     0.08900
Cu676      Cu  0.73116792  0.48727868  0.95359123     0.44200
Cu677      Cu  0.73015604  0.53199445  0.97039645     0.42000
Cu678      Cu  0.78180263  0.53016990  0.96835145     0.43900
N679        N  0.76162031  0.48936120  0.95127913    -0.34700
N680        N  0.78060996  0.50596908  0.95586157    -0.29000
C681        C  0.79759850  0.50404876  0.95114330    -0.05100
C682        C  0.78880437  0.48518044  0.94332394     0.07100
C683        C  0.76590691  0.47626398  0.94376397     0.00900
H684        H  0.81508595  0.51572916  0.95308621     0.08600
H685        H  0.75325490  0.46162196  0.93871030     0.07600
N686        N  0.77670407  0.54996844  0.98148734    -0.36200
N687        N  0.75793266  0.55040811  0.98229248    -0.28400
C688        C  0.75950115  0.56351416  0.99227492    -0.03600
C689        C  0.78022763  0.57181954  0.99798809     0.05000
C690        C  0.79067734  0.56286254  0.99092763     0.03100
H691        H  0.74625556  0.56624562  0.99540460     0.08200
H692        H  0.80689519  0.56488619  0.99282009     0.07000
N693        N  0.55642171  0.42751820  0.91193500    -0.36700
N694        N  0.52059343  0.40739812  0.89279408    -0.57200
N695        N  0.53906162  0.45054157  0.87996162    -0.36700
N696        N  0.57594033  0.46991689  0.89829729    -0.57200
C697        C  0.54686126  0.40567283  0.91523708     0.26900
C698        C  0.57682932  0.43860318  0.91761746     0.26900
C699        C  0.52265636  0.43757295  0.87151667     0.26900
C700        C  0.55289307  0.47023879  0.87401164     0.26900
C701        C  0.51334404  0.38963929  0.90076986     0.35500
C702        C  0.50408194  0.40184360  0.88410872     0.35500
C703        C  0.59010348  0.47653094  0.90840766     0.35500
C704        C  0.58101415  0.48859598  0.89163808     0.35500
C705        C  0.56098479  0.40305891  0.92352858    -0.22000
C706        C  0.57998443  0.42369951  0.92484862    -0.22000
C707        C  0.52568765  0.44946326  0.86024226    -0.22000
C708        C  0.54492686  0.46989914  0.86173682    -0.22000
C709        C  0.49244133  0.37253162  0.89689582    -0.23000
C710        C  0.48657240  0.38025309  0.88639138    -0.23000
C711        C  0.60411968  0.49958080  0.90825323    -0.23000
C712        C  0.59836897  0.50722778  0.89762745    -0.23000
C713        C  0.52560107  0.38804777  0.91116712    -0.18400
C714        C  0.59248778  0.46190127  0.91679970    -0.18400
C715        C  0.57198499  0.48889564  0.87950361    -0.18400
C716        C  0.50468479  0.41553719  0.87383169    -0.18400
H717        H  0.55813543  0.38782618  0.92806851     0.14500
H718        H  0.59440697  0.42730032  0.93060056     0.14500
H719        H  0.51526510  0.44399063  0.85173820     0.14500
H720        H  0.55202847  0.48313292  0.85463223     0.14500
H721        H  0.48245123  0.35608935  0.90112889     0.12800
H722        H  0.47119766  0.37089487  0.88099178     0.12800
H723        H  0.61759745  0.50972684  0.91485703     0.12800
H724        H  0.60651447  0.52445759  0.89444361     0.12800
H725        H  0.54872300  0.43454947  0.90710750     0.26100
H726        H  0.53950834  0.44699627  0.88945293     0.26100
N727        N  0.48466365  0.28332310  0.95634405    -0.27400
N728        N  0.48117670  0.27113528  0.94587570    -0.35200
C729        C  0.48414247  0.28379742  0.93545560     0.01000
C730        C  0.49017531  0.30509848  0.93953460     0.07000
C731        C  0.49020628  0.30414026  0.95283636    -0.06100
H732        H  0.48341879  0.27829478  0.92563501     0.07700
H733        H  0.49501173  0.31787277  0.95946383     0.08900
Cu734      Cu  0.47848570  0.24008750  0.94584118     0.44200
Cu735      Cu  0.48329915  0.27171008  0.97489754     0.42000
Cu736      Cu  0.49225090  0.22571050  0.97641796     0.43900
N737        N  0.49013449  0.21818358  0.94778444    -0.34700
N738        N  0.49737806  0.21486336  0.95882470    -0.29000
C739        C  0.50702650  0.20265294  0.95665768    -0.05100
C740        C  0.50531936  0.19751967  0.94365552     0.07100
C741        C  0.49443543  0.20765929  0.93835363     0.00900
H742        H  0.51467122  0.19782491  0.96404713     0.08600
H743        H  0.49017558  0.20764699  0.92834539     0.07600
N744        N  0.48069879  0.23571502  0.99198446    -0.36200
N745        N  0.47751621  0.25286924  0.99144971    -0.28400
C746        C  0.46783092  0.25380712  0.00246331    -0.03600
C747        C  0.46466788  0.23631539  0.01029420     0.05000
C748        C  0.47308126  0.22522957  0.00334600     0.03100
H749        H  0.46246588  0.26564333  0.00436976     0.08200
H750        H  0.47282270  0.21011171  0.00612871     0.07000
N751        N  0.92195302  0.65003744  0.81441725    -0.27400
N752        N  0.90581050  0.62963833  0.81754937    -0.35200
C753        C  0.88735615  0.62459281  0.81074449     0.01000
C754        C  0.89214863  0.64265353  0.80293590     0.07000
C755        C  0.91421210  0.65847915  0.80554138    -0.06100
H756        H  0.87205615  0.60845059  0.81083385     0.07700
H757        H  0.92429770  0.67438497  0.80074388     0.08900
Cu758      Cu  0.91084540  0.60817885  0.82912284     0.44200
Cu759      Cu  0.95459186  0.66431193  0.82102877     0.42000
Cu760      Cu  0.96907260  0.62501588  0.83361409     0.43900
N761        N  0.92144566  0.58802818  0.83753867    -0.34700
N762        N  0.94263540  0.59357474  0.83826545    -0.29000
C763        C  0.94384722  0.57673019  0.84377416    -0.05100
C764        C  0.92239569  0.55985460  0.84689641     0.07100
C765        C  0.90865274  0.56764109  0.84277786     0.00900
H766        H  0.95929002  0.57706165  0.84567725     0.08600
H767        H  0.89065695  0.55923416  0.84372408     0.07600
N768        N  0.99119305  0.65921380  0.83288261    -0.36200
N769        N  0.98581777  0.67373066  0.82856290    -0.28400
C770        C  0.00278445  0.69461017  0.83100304    -0.03600
C771        C  0.01955224  0.69307762  0.83718854     0.05000
C772        C  0.01166134  0.67042754  0.83819682     0.03100
H773        H  0.00246299  0.70971424  0.82902811     0.08200
H774        H  0.01962017  0.66266594  0.84315419     0.07000
N775        N  0.33792072  0.05382238  0.80895801    -0.27400
N776        N  0.35959983  0.06869244  0.80947030    -0.35200
C777        C  0.36409265  0.08578602  0.80152473     0.01000
C778        C  0.34436114  0.08149320  0.79570371     0.07000
C779        C  0.32813072  0.06102983  0.80063158    -0.06100
H780        H  0.38049362  0.10045360  0.80020096     0.07700
H781        H  0.31045389  0.05211996  0.79841793     0.08900
Cu782      Cu  0.38214915  0.06578715  0.82141163     0.44200
Cu783      Cu  0.32226267  0.02498611  0.82015109     0.42000
Cu784      Cu  0.35667399  0.02223844  0.84533059     0.43900
N785        N  0.40029515  0.06096435  0.83575795    -0.34700
N786        N  0.39063041  0.04578513  0.84491534    -0.29000
C787        C  0.40630841  0.04782156  0.85327337    -0.05100
C788        C  0.42703720  0.06490662  0.84914812     0.07100
C789        C  0.42251487  0.07276725  0.83793740     0.00900
H790        H  0.40282123  0.03768912  0.86182214     0.08600
H791        H  0.43445907  0.08625413  0.83187437     0.07600
N792        N  0.32324694  0.99815716  0.84264712    -0.36200
N793        N  0.31067839  0.99893713  0.83336168    -0.28400
C794        C  0.29009811  0.98060923  0.83410785    -0.03600
C795        C  0.28977437  0.96770235  0.84433016     0.05000
C796        C  0.31104359  0.97932707  0.84952128     0.03100
H797        H  0.27642690  0.97689991  0.82766071     0.08200
H798        H  0.31721347  0.97441923  0.85767780     0.07000
N799        N  0.13151292  0.78959415  0.86819147    -0.27400
N800        N  0.12543482  0.77611465  0.87827332    -0.35200
C801        C  0.10571364  0.75750671  0.87570239     0.01000
C802        C  0.09919577  0.75944991  0.86343058     0.07000
C803        C  0.11590055  0.77996170  0.85895900    -0.06100
H804        H  0.09683812  0.74356943  0.88224238     0.07700
H805        H  0.11664684  0.78736205  0.84968175     0.08900
Cu806      Cu  0.14425911  0.78361385  0.89503837     0.44200
Cu807      Cu  0.16047793  0.82060995  0.86727914     0.42000
Cu808      Cu  0.19371426  0.83879637  0.89626250     0.43900
N809        N  0.16602957  0.79545216  0.91063693    -0.34700
N810        N  0.18388665  0.81578634  0.91116864    -0.29000
C811        C  0.19435021  0.81833683  0.92247537    -0.05100
C812        C  0.18259102  0.79861793  0.92938056     0.07100
C813        C  0.16474610  0.78448319  0.92156539     0.00900
H814        H  0.20946576  0.83340314  0.92542819     0.08600
H815        H  0.15182896  0.76742989  0.92365263     0.07600
N816        N  0.20158277  0.85809001  0.87970992    -0.36200
N817        N  0.18956174  0.85137479  0.86903713    -0.28400
C818        C  0.19957735  0.86734279  0.85998672    -0.03600
C819        C  0.21876228  0.88489531  0.86527744     0.05000
C820        C  0.21958316  0.87850543  0.87774634     0.03100
H821        H  0.19356960  0.86608413  0.85024619     0.08200
H822        H  0.23254741  0.88781090  0.88478232     0.07000
N823        N  0.06309519  0.34786802  0.30449376    -0.27400
N824        N  0.07913220  0.36919217  0.30508726    -0.35200
C825        C  0.09509449  0.37295049  0.29642970     0.01000
C826        C  0.08884751  0.35310118  0.29010853     0.07000
C827        C  0.06852462  0.33753310  0.29545967    -0.06100
H828        H  0.11038535  0.38883885  0.29505060     0.07700
H829        H  0.05863051  0.31991422  0.29313061     0.08900
Cu830      Cu  0.07954196  0.39224453  0.31809037     0.44200
Cu831      Cu  0.03492626  0.33335389  0.31637821     0.42000
Cu832      Cu  0.03427773  0.36952955  0.34105960     0.43900
N833        N  0.07625514  0.41131000  0.33245490    -0.34700
N834        N  0.05965099  0.40278047  0.34087077    -0.29000
C835        C  0.06183490  0.41909501  0.34877796    -0.05100
C836        C  0.08075561  0.43882360  0.34521904     0.07100
C837        C  0.08953279  0.43336554  0.33483287     0.00900
H838        H  0.05041019  0.41678534  0.35649986     0.08600
H839        H  0.10432827  0.44460610  0.32936292     0.07600
N840        N  0.00918769  0.33641264  0.33888875    -0.36200
N841        N  0.00919393  0.32304619  0.32982932    -0.28400
C842        C  0.99038694  0.30285358  0.33094307    -0.03600
C843        C  0.97801831  0.30368599  0.34115528     0.05000
C844        C  0.99044217  0.32518275  0.34596330     0.03100
H845        H  0.98596414  0.28867868  0.32474393     0.08200
H846        H  0.98613326  0.33217491  0.35399092     0.07000
N847        N  0.64787488  0.92914875  0.31407073    -0.27400
N848        N  0.62748807  0.91356832  0.31764149    -0.35200
C849        C  0.62026795  0.89563260  0.30990406     0.01000
C850        C  0.63691282  0.90010998  0.30106407     0.07000
C851        C  0.65417989  0.92147417  0.30399156    -0.06100
H852        H  0.60408623  0.88047070  0.31064119     0.07700
H853        H  0.67012478  0.93076769  0.29912539     0.08900
Cu854      Cu  0.60978821  0.91779682  0.33236236     0.44200
Cu855      Cu  0.66605766  0.96036772  0.32288450     0.42000
Cu856      Cu  0.63258859  0.97501436  0.34247719     0.43900
N857        N  0.59288841  0.92842180  0.34410106    -0.34700
N858        N  0.60023453  0.94970574  0.34655586    -0.29000
C859        C  0.58437216  0.95132305  0.35302141    -0.05100
C860        C  0.56631812  0.92992450  0.35511329     0.07100
C861        C  0.57251800  0.91587671  0.34936704     0.00900
H862        H  0.58601718  0.96699040  0.35600989     0.08600
H863        H  0.56290995  0.89779209  0.34899383     0.07600
N864        N  0.66693438  0.99531050  0.34038975    -0.36200
N865        N  0.67938438  0.99010366  0.33327454    -0.28400
C866        C  0.70091578  0.00675235  0.33413839    -0.03600
C867        C  0.70199460  0.02313468  0.34222905     0.05000
C868        C  0.68015083  0.01522945  0.34603556     0.03100
H869        H  0.71469618  0.00703098  0.32913946     0.08200
H870        H  0.67427360  0.02345025  0.35240664     0.07000
N871        N  0.86057792  0.20419907  0.36555272    -0.27400
N872        N  0.86460909  0.21791086  0.37538726    -0.35200
C873        C  0.88439187  0.23684811  0.37346684     0.01000
C874        C  0.89323287  0.23497356  0.36194100     0.07000
C875        C  0.87774793  0.21410258  0.35717207    -0.06100
H876        H  0.89180730  0.25097159  0.37998319     0.07700
H877        H  0.87883927  0.20669348  0.34824904     0.08900
Cu878      Cu  0.84332986  0.21092616  0.39114566     0.44200
Cu879      Cu  0.83199690  0.17250048  0.36369933     0.42000
Cu880      Cu  0.79264733  0.15771915  0.38949595     0.43900
N881        N  0.81845493  0.19952088  0.40525885    -0.34700
N882        N  0.79980075  0.17984971  0.40442094    -0.29000
C883        C  0.78686451  0.17681880  0.41471105    -0.05100
C884        C  0.79784649  0.19545768  0.42247900     0.07100
C885        C  0.81783709  0.20961136  0.41621024     0.00900
H886        H  0.77064108  0.16210387  0.41640905     0.08600
H887        H  0.83093037  0.22594021  0.41939865     0.07600
N888        N  0.78789075  0.13658638  0.37437393    -0.36200
N889        N  0.80214822  0.14170378  0.36475719    -0.28400
C890        C  0.79368218  0.12438420  0.35642684    -0.03600
C891        C  0.77325109  0.10770999  0.36116374     0.05000
C892        C  0.77009334  0.11604897  0.37249331     0.03100
H893        H  0.80152405  0.12414075  0.34748608     0.08200
H894        H  0.75566816  0.10799005  0.37876696     0.07000
N895        N  0.27993221  0.33846605  0.30495927    -0.27400
N896        N  0.28499793  0.35938205  0.30679492    -0.35200
C897        C  0.27250354  0.36381742  0.29885904     0.01000
C898        C  0.25918266  0.34498135  0.29148986     0.07000
C899        C  0.26439821  0.32924636  0.29561898    -0.06100
H900        H  0.27314773  0.37968120  0.29844328     0.07700
H901        H  0.25739876  0.31230945  0.29210393     0.08900
Cu902      Cu  0.30877837  0.38152239  0.31981846     0.44200
Cu903      Cu  0.29309269  0.32274047  0.31578566     0.42000
Cu904      Cu  0.32496271  0.35537285  0.34338574     0.43900
N905        N  0.33075814  0.39926213  0.33472018    -0.34700
N906        N  0.33546821  0.38915477  0.34386659    -0.29000
C907        C  0.34902939  0.40443843  0.35253617    -0.05100
C908        C  0.35354651  0.42539474  0.34859169     0.07100
C909        C  0.34165075  0.42140815  0.33719129     0.00900
H910        H  0.35532981  0.40058187  0.36105936     0.08600
H911        H  0.34101525  0.43367379  0.33110133     0.07600
N912        N  0.31771572  0.32303638  0.33966013    -0.36200
N913        N  0.30650745  0.31112459  0.32949062    -0.28400
C914        C  0.30626800  0.29161693  0.32957892    -0.03600
C915        C  0.31795495  0.29139829  0.34029768     0.05000
C916        C  0.32493940  0.31152881  0.34644638     0.03100
H917        H  0.29878690  0.27889377  0.32219813     0.08200
H918        H  0.33520379  0.31769564  0.35499568     0.07000
N919        N  0.28947446  0.93363095  0.31261503    -0.27400
N920        N  0.29597430  0.91903035  0.31455686    -0.35200
C921        C  0.28443445  0.90143273  0.30666108     0.01000
C922        C  0.27020856  0.90525284  0.29921329     0.07000
C923        C  0.27404599  0.92595478  0.30320923    -0.06100
H924        H  0.28597269  0.88672205  0.30654478     0.07700
H925        H  0.26582079  0.93459150  0.29975290     0.08900
Cu926      Cu  0.31989123  0.92342159  0.32802001     0.44200
Cu927      Cu  0.29992957  0.96209548  0.32377019     0.42000
Cu928      Cu  0.33165143  0.96508822  0.35216500     0.43900
N929        N  0.34182884  0.93017892  0.34317624    -0.34700
N930        N  0.34489800  0.94434710  0.35252886    -0.29000
C931        C  0.35870022  0.94377899  0.36136873    -0.05100
C932        C  0.36492910  0.92875601  0.35730145     0.07100
C933        C  0.35400147  0.92059582  0.34566316     0.00900
H934        H  0.36374412  0.95352713  0.37014332     0.08600
H935        H  0.35457950  0.90833320  0.33952407     0.07600
N936        N  0.32256979  0.98841688  0.34771890    -0.36200
N937        N  0.31141112  0.98770476  0.33725720    -0.28400
C938        C  0.31011291  0.00636254  0.33674484    -0.03600
C939        C  0.32107046  0.01941059  0.34736901     0.05000
C940        C  0.32870415  0.00750698  0.35410837     0.03100
H941        H  0.30247707  0.01048622  0.32899582     0.08200
H942        H  0.33872036  0.01274410  0.36277580     0.07000
N943        N  0.34788712  0.20128323  0.36401815    -0.27400
N944        N  0.35880671  0.21686298  0.37286186    -0.35200
C945        C  0.35660427  0.23458804  0.37027548     0.01000
C946        C  0.34366962  0.22993654  0.35932866     0.07000
C947        C  0.33843330  0.20870301  0.35560240    -0.06100
H948        H  0.36363523  0.24964821  0.37604332     0.07700
H949        H  0.32836046  0.19927477  0.34744099     0.08900
Cu950      Cu  0.37563822  0.21340127  0.38841690     0.44200
Cu951      Cu  0.34560741  0.17029937  0.36387290     0.42000
Cu952      Cu  0.37300892  0.16047376  0.39032128     0.43900
N953        N  0.39013091  0.20505655  0.40325114    -0.34700
N954        N  0.38930669  0.18565238  0.40378057    -0.29000
C955        C  0.39954500  0.18486369  0.41455914    -0.05100
C956        C  0.40712083  0.20468929  0.42116725     0.07100
C957        C  0.40085171  0.21712558  0.41376643     0.00900
H958        H  0.40082399  0.17065959  0.41754238     0.08600
H959        H  0.40352778  0.23352435  0.41598012     0.07600
N960        N  0.35522086  0.13700737  0.37621024    -0.36200
N961        N  0.34527663  0.14050312  0.36641757    -0.28400
C962        C  0.33599593  0.12226969  0.35878691    -0.03600
C963        C  0.34034061  0.10662394  0.36408486     0.05000
C964        C  0.35249799  0.11651162  0.37512336     0.03100
H965        H  0.32726053  0.12074380  0.34989155     0.08200
H966        H  0.35935725  0.10952970  0.38171047     0.07000
N967        N  0.42688239  0.85300762  0.41960379    -0.36700
N968        N  0.46542344  0.87074932  0.40246518    -0.57200
N969        N  0.45019977  0.89728022  0.38930777    -0.36700
N970        N  0.41124425  0.87843465  0.40611951    -0.57200
C971        C  0.43434517  0.83886823  0.42204853     0.26900
C972        C  0.40571952  0.84327611  0.42415534     0.26900
C973        C  0.46713020  0.90057506  0.38145502     0.26900
C974        C  0.43674225  0.90229260  0.38251494     0.26900
C975        C  0.47116846  0.85990293  0.41100474     0.35500
C976        C  0.48391519  0.88385043  0.39538657     0.35500
C977        C  0.39660838  0.87119272  0.41601651     0.35500
C978        C  0.40797645  0.89315277  0.39946087     0.35500
C979        C  0.41787253  0.82004723  0.42836576    -0.22000
C980        C  0.39975970  0.82280731  0.42967536    -0.22000
C981        C  0.46487366  0.90859059  0.36968006    -0.22000
C982        C  0.44546996  0.90925126  0.37026397    -0.22000
C983        C  0.49328445  0.86589823  0.40924786    -0.23000
C984        C  0.50132114  0.88094645  0.39930016    -0.23000
C985        C  0.38419399  0.88165300  0.41579157    -0.23000
C986        C  0.39132326  0.89550003  0.40524208    -0.23000
C987        C  0.45628956  0.84343901  0.41974208    -0.18400
C988        C  0.39204378  0.85285948  0.42394395    -0.18400
C989        C  0.41747072  0.90189311  0.38728879    -0.18400
C990        C  0.48483972  0.89709295  0.38480564    -0.18400
H991        H  0.41891880  0.80592986  0.43181683     0.14500
H992        H  0.38408141  0.81116857  0.43428984     0.14500
H993        H  0.47589110  0.91327350  0.36144511     0.14500
H994        H  0.43881217  0.91468890  0.36260860     0.14500
H995        H  0.50254980  0.85974643  0.41442162     0.12800
H996        H  0.51800627  0.88860150  0.39531029     0.12800
H997        H  0.37066208  0.87874684  0.42217008     0.12800
H998        H  0.38445302  0.90548802  0.40191088     0.12800
H999        H  0.43661102  0.86943632  0.41644557     0.26100
H1000       H  0.44914582  0.89386305  0.39908998     0.26100
N1001       N  0.49974163  0.70272504  0.46577947    -0.27400
N1002       N  0.48409081  0.70452277  0.45967970    -0.35200
C1003       C  0.47324645  0.68726509  0.45152529     0.01000
C1004       C  0.48264324  0.67396806  0.45232995     0.07000
C1005       C  0.49936021  0.68419498  0.46153935    -0.06100
H1006       H  0.46024659  0.68520352  0.44497503     0.07700
H1007       H  0.51093787  0.67905054  0.46453932     0.08900
Cu1008     Cu  0.48118466  0.73251599  0.46053729     0.44200
Cu1009     Cu  0.52136612  0.72691464  0.47887285     0.42000
Cu1010     Cu  0.52536112  0.78141736  0.47614449     0.43900
N1011       N  0.48721898  0.76439019  0.45746168    -0.34700
N1012       N  0.50434164  0.78262971  0.46239578    -0.29000
C1013       C  0.50472194  0.80065658  0.45736721    -0.05100
C1014       C  0.48680678  0.79328792  0.44896907     0.07100
C1015       C  0.47608041  0.77021054  0.44934731     0.00900
H1016       H  0.51708217  0.81781502  0.45966861     0.08600
H1017       H  0.46134456  0.75844758  0.44400790     0.07600
N1018       N  0.53997513  0.77296531  0.49082900    -0.36200
N1019       N  0.53853755  0.75328579  0.49181955    -0.28400
C1020       C  0.54846039  0.75282236  0.50283459    -0.03600
C1021       C  0.55643361  0.77308912  0.50908124     0.05000
C1022       C  0.55078497  0.78545977  0.50119905     0.03100
H1023       H  0.54920738  0.73852878  0.50624987     0.08200
H1024       H  0.55380302  0.80210153  0.50302997     0.07000
N1025       N  0.13034239  0.56664366  0.41517976    -0.36700
N1026       N  0.11251099  0.58647575  0.39795919    -0.57200
N1027       N  0.10041579  0.55038655  0.37942684    -0.36700
N1028       N  0.11693164  0.52994983  0.39721574    -0.57200
C1029       C  0.14060567  0.58765447  0.42006426     0.26900
C1030       C  0.13973742  0.55592142  0.42084625     0.26900
C1031       C  0.08673195  0.55793681  0.37576733     0.26900
C1032       C  0.09218007  0.52975927  0.37418110     0.26900
C1033       C  0.12204209  0.60333360  0.40660855     0.35500
C1034       C  0.10207055  0.59236215  0.38925380     0.35500
C1035       C  0.12120270  0.52112939  0.40766109     0.35500
C1036       C  0.10725878  0.51333128  0.38841911     0.35500
C1037       C  0.15622219  0.59001722  0.42918855    -0.22000
C1038       C  0.15545827  0.56995642  0.42980646    -0.22000
C1039       C  0.06945028  0.54177786  0.36837094    -0.22000
C1040       C  0.07225397  0.52361950  0.36797428    -0.22000
C1041       C  0.11728048  0.61983632  0.40351224    -0.23000
C1042       C  0.10460971  0.61288362  0.39251996    -0.23000
C1043       C  0.11342472  0.49862053  0.40567156    -0.23000
C1044       C  0.10405791  0.49354014  0.39362783    -0.23000
C1045       C  0.13617403  0.60479526  0.41679856    -0.18400
C1046       C  0.13436202  0.53371590  0.41826689    -0.18400
C1047       C  0.10161095  0.51598840  0.37569531    -0.18400
C1048       C  0.08975581  0.57925207  0.37857175    -0.18400
H1049       H  0.16708670  0.60468159  0.43487325     0.14500
H1050       H  0.16559473  0.56630684  0.43607063     0.14500
H1051       H  0.05575775  0.54257356  0.36404323     0.14500
H1052       H  0.06061482  0.50757332  0.36374282     0.14500
H1053       H  0.12263471  0.63540787  0.40854532     0.12800
H1054       H  0.09801758  0.62191921  0.38752057     0.12800
H1055       H  0.11463606  0.48709347  0.41212758     0.12800
H1056       H  0.09615566  0.47720095  0.38914536     0.12800
H1057       H  0.11664975  0.55939275  0.40904866     0.26100
H1058       H  0.11572371  0.55957591  0.38413470     0.26100
N1059       N  0.19915369  0.71375661  0.46071033    -0.27400
N1060       N  0.21719769  0.71427640  0.45625468    -0.35200
C1061       C  0.21090730  0.69674934  0.44834193     0.01000
C1062       C  0.18776517  0.68485656  0.44750287     0.07000
C1063       C  0.18092815  0.69621076  0.45548841    -0.06100
H1064       H  0.22240977  0.69334088  0.44325229     0.07700
H1065       H  0.16397117  0.69231139  0.45719124     0.08900
Cu1066     Cu  0.24938029  0.74100561  0.45911475     0.44200
Cu1067     Cu  0.20024891  0.73684721  0.47377472     0.42000
Cu1068     Cu  0.25331148  0.78856951  0.47582841     0.43900
N1069       N  0.27734718  0.77295083  0.45848930    -0.34700
N1070       N  0.27844244  0.79063721  0.46399354    -0.29000
C1071       C  0.29759245  0.80911100  0.46036709    -0.05100
C1072       C  0.30907506  0.80268621  0.45221155     0.07100
C1073       C  0.29577096  0.77964800  0.45131128     0.00900
H1074       H  0.30245730  0.82600323  0.46314186     0.08600
H1075       H  0.29882634  0.76864546  0.44542246     0.07600
N1076       N  0.22663398  0.78027345  0.48820053    -0.36200
N1077       N  0.20728293  0.76118982  0.48755018    -0.28400
C1078       C  0.19422839  0.76015962  0.49741637    -0.03600
C1079       C  0.20591779  0.77957863  0.50455668     0.05000
C1080       C  0.22635593  0.79195652  0.49845865     0.03100
H1081       H  0.17766054  0.74615501  0.49938358     0.08200
H1082       H  0.24021730  0.80798941  0.50146172     0.07000
N1083       N  0.41963880  0.55913126  0.41644743    -0.36700
N1084       N  0.46070597  0.57780936  0.40203164    -0.57200
N1085       N  0.44108024  0.53902694  0.38513134    -0.36700
N1086       N  0.39984957  0.52058716  0.39972021    -0.57200
C1087       C  0.43002250  0.58074158  0.42029025     0.26900
C1088       C  0.39767810  0.54986279  0.41925593     0.26900
C1089       C  0.45930481  0.55362446  0.37824402     0.26900
C1090       C  0.42641108  0.52322732  0.37687800     0.26900
C1091       C  0.46777807  0.59248465  0.41193259     0.35500
C1092       C  0.47916150  0.58166076  0.39554465     0.35500
C1093       C  0.38453282  0.51290939  0.40927839     0.35500
C1094       C  0.39529424  0.50275455  0.39234894     0.35500
C1095       C  0.41449165  0.58527599  0.42563271    -0.22000
C1096       C  0.39402882  0.56576494  0.42495075    -0.22000
C1097       C  0.45638268  0.54678515  0.36549311    -0.22000
C1098       C  0.43559176  0.52762076  0.36462616    -0.22000
C1099       C  0.49089481  0.60560460  0.41184986    -0.23000
C1100       C  0.49812403  0.59876368  0.40144074    -0.23000
C1101       C  0.37037306  0.48996729  0.40812237    -0.23000
C1102       C  0.37709953  0.48354747  0.39731348    -0.23000
C1103       C  0.45338603  0.59582960  0.42000037    -0.18400
C1104       C  0.38135589  0.52695010  0.41775301    -0.18400
C1105       C  0.40559234  0.50427536  0.38036441    -0.18400
C1106       C  0.47874590  0.57248864  0.38331512    -0.18400
H1107       H  0.41764001  0.60091178  0.42977859     0.14500
H1108       H  0.37833804  0.56342904  0.42848111     0.14500
H1109       H  0.46802850  0.55475179  0.35763174     0.14500
H1110       H  0.42816369  0.51791926  0.35598710     0.14500
H1111       H  0.50135301  0.61926554  0.41828368     0.12800
H1112       H  0.51527977  0.60617821  0.39823930     0.12800
H1113       H  0.35605564  0.47920551  0.41406957     0.12800
H1114       H  0.36908148  0.46682448  0.39331967     0.12800
H1115       H  0.42746319  0.55045789  0.41360229     0.26100
H1116       H  0.43967854  0.53868615  0.39510802     0.26100
N1117       N  0.19319836  0.48441888  0.46254390    -0.27400
N1118       N  0.20321380  0.48592228  0.45148486    -0.35200
C1119       C  0.19416860  0.49223608  0.44225937     0.01000
C1120       C  0.17839556  0.49620818  0.44775134     0.07000
C1121       C  0.17806780  0.49081426  0.46069089    -0.06100
H1122       H  0.19978931  0.49514928  0.43236615     0.07700
H1123       H  0.16839476  0.49243033  0.46830937     0.08900
Cu1124     Cu  0.23252537  0.48548743  0.44977053     0.44200
Cu1125     Cu  0.20163855  0.47370859  0.47925052     0.42000
Cu1126     Cu  0.24944692  0.46424927  0.47524810     0.43900
N1127       N  0.26347542  0.48817064  0.45016654    -0.34700
N1128       N  0.26918448  0.47863345  0.45912601    -0.29000
C1129       C  0.28950242  0.48184856  0.45630677    -0.05100
C1130       C  0.29728486  0.49463326  0.44516199     0.07100
C1131       C  0.28031289  0.49852208  0.44169770     0.00900
H1132       H  0.29791298  0.47531208  0.46196879     0.08600
H1133       H  0.28013569  0.50817675  0.43359607     0.07600
N1134       N  0.22912430  0.45563230  0.49137022    -0.36200
N1135       N  0.21239731  0.45934090  0.49301690    -0.28400
C1136       C  0.20352420  0.45197896  0.50478680    -0.03600
C1137       C  0.21522555  0.44329851  0.51072473     0.05000
C1138       C  0.23128569  0.44588682  0.50198898     0.03100
H1139       H  0.18957182  0.45282140  0.50871235     0.08200
H1140       H  0.24377195  0.44119482  0.50328782     0.07000
N1141       N  0.64525384  0.70516035  0.31097528    -0.27400
N1142       N  0.62426246  0.69922310  0.31335245    -0.35200
C1143       C  0.61858934  0.71118945  0.30576860     0.01000
C1144       C  0.63662396  0.72500143  0.29794820     0.07000
C1145       C  0.65323764  0.72062556  0.30153508    -0.06100
H1146       H  0.60237180  0.70977789  0.30586525     0.07700
H1147       H  0.66990513  0.72806627  0.29755144     0.08900
Cu1148     Cu  0.60355683  0.67417292  0.32623083     0.44200
Cu1149     Cu  0.66232483  0.69280111  0.32129481     0.42000
Cu1150     Cu  0.63045977  0.65520878  0.34776995     0.43900
N1151       N  0.58628714  0.64961994  0.34007902    -0.34700
N1152       N  0.59646895  0.64390157  0.34864106    -0.29000
C1153       C  0.58121689  0.62935014  0.35703139    -0.05100
C1154       C  0.56020135  0.62520802  0.35345249     0.07100
C1155       C  0.56418290  0.63826735  0.34253505     0.00900
H1156       H  0.58521251  0.62247946  0.36523564     0.08600
H1157       H  0.55195881  0.63965006  0.33683250     0.07600
N1158       N  0.66362518  0.66564052  0.34364922    -0.36200
N1159       N  0.67526608  0.67916050  0.33406550    -0.28400
C1160       C  0.69590820  0.68192792  0.33402628    -0.03600
C1161       C  0.69718972  0.66943004  0.34399522     0.05000
C1162       C  0.67646407  0.65937242  0.34987734     0.03100
H1163       H  0.70889397  0.69200742  0.32714801     0.08200
H1164       H  0.67103775  0.64812226  0.35802941     0.07000
N1165       N  0.06129256  0.71457832  0.31114812    -0.27400
N1166       N  0.06915703  0.70108914  0.30895902    -0.35200
C1167       C  0.08486348  0.70999557  0.29969889     0.01000
C1168       C  0.08703259  0.72998981  0.29577421     0.07000
C1169       C  0.07184312  0.73239200  0.30323218    -0.06100
H1170       H  0.09453384  0.70278173  0.29635238     0.07700
H1171       H  0.06902367  0.74631244  0.30309355     0.08900
Cu1172     Cu  0.06037865  0.67210305  0.31924693     0.44200
Cu1173     Cu  0.03715962  0.70879967  0.32518366     0.42000
Cu1174     Cu  0.02326188  0.66160814  0.34545873     0.43900
N1175       N  0.05434752  0.64874833  0.33349560    -0.34700
N1176       N  0.04228977  0.64666593  0.34376803    -0.29000
C1177       C  0.04434461  0.63341027  0.35234225    -0.05100
C1178       C  0.05785731  0.62609493  0.34713518     0.07100
C1179       C  0.06371473  0.63609526  0.33505757     0.00900
H1180       H  0.03691633  0.62979876  0.36183292     0.08600
H1181       H  0.07440724  0.63477163  0.32800808     0.07600
N1182       N  0.00541690  0.67793307  0.34547324    -0.36200
N1183       N  0.01140000  0.69640417  0.33890881    -0.28400
C1184       C  0.99712553  0.70349634  0.34179465    -0.03600
C1185       C  0.98088246  0.68831593  0.35027358     0.05000
C1186       C  0.98678781  0.67227197  0.35221735     0.03100
H1187       H  0.99839829  0.71850020  0.33787713     0.08200
H1188       H  0.97798832  0.65725664  0.35797323     0.07000
N1189       N  0.79928741  0.65931451  0.36900605    -0.27400
N1190       N  0.78684332  0.65432852  0.37947730    -0.35200
C1191       C  0.76714836  0.65233669  0.37646321     0.01000
C1192       C  0.76710587  0.65630107  0.36346036     0.07000
C1193       C  0.78779893  0.66083044  0.35899905    -0.06100
H1194       H  0.75440472  0.64971572  0.38338271     0.07700
H1195       H  0.79446889  0.66612138  0.34940388     0.08900
Cu1196     Cu  0.79830086  0.65368649  0.39768447     0.44200
Cu1197     Cu  0.83221690  0.66630308  0.36967851     0.42000
Cu1198     Cu  0.85744292  0.67727808  0.40208186     0.43900
N1199       N  0.81249857  0.65377916  0.41512523    -0.34700
N1200       N  0.83419729  0.66247942  0.41696079    -0.29000
C1201       C  0.83741037  0.65705152  0.42890388    -0.05100
C1202       C  0.81671561  0.64447438  0.43478388     0.07100
C1203       C  0.80137675  0.64275463  0.42576470     0.00900
H1204       H  0.85336833  0.66051992  0.43265653     0.08600
H1205       H  0.78334937  0.63281682  0.42653761     0.07600
N1206       N  0.87491680  0.68187774  0.38492786    -0.36200
N1207       N  0.86530588  0.67558772  0.37350298    -0.28400
C1208       C  0.88028973  0.67625535  0.36503920    -0.03600
C1209       C  0.90058201  0.68386567  0.37127476     0.05000
C1210       C  0.89647163  0.68757821  0.38385489     0.03100
H1211       H  0.87637537  0.67077416  0.35515107     0.08200
H1212       H  0.90804460  0.69311520  0.39184018     0.07000
O1213       O  0.13737028  0.31877014  0.22173293    -0.73000
O1214       O  0.17980364  0.31964721  0.24839495    -0.74000
O1215       O  0.13964139  0.32197928  0.24919909    -0.62600
O1216       O  0.17670942  0.31616480  0.22115820    -0.71000
O1217       O  0.19716915  0.35323692  0.22004419    -0.70600
O1218       O  0.15957372  0.35899312  0.24751067    -0.61800
O1219       O  0.19908921  0.35652475  0.24746874    -0.74300
O1220       O  0.15758005  0.35570123  0.22052214    -0.73100
Cu1221     Cu  0.15764007  0.31783632  0.23521686     1.04600
Cu1222     Cu  0.17909239  0.35736516  0.23384611     1.04300
C1223       C  0.14085910  0.33714941  0.21683889     0.93200
C1224       C  0.19639796  0.33830926  0.25211650     0.92300
C1225       C  0.14345975  0.34134584  0.25254888     0.84500
C1226       C  0.19279184  0.33392971  0.21619638     0.90700
O1227       O  0.61589007  0.82542288  0.22957505    -0.73000
O1228       O  0.61830669  0.78445852  0.25589410    -0.74000
O1229       O  0.61720374  0.82470020  0.25696884    -0.62600
O1230       O  0.61756237  0.78529776  0.22825386    -0.71000
O1231       O  0.65457468  0.80569639  0.22775971    -0.70600
O1232       O  0.65421813  0.84418203  0.25657752    -0.61800
O1233       O  0.65508630  0.80329934  0.25511529    -0.74300
O1234       O  0.65294688  0.84571471  0.22921741    -0.73100
Cu1235     Cu  0.61596795  0.80426601  0.24269628     1.04600
Cu1236     Cu  0.65547886  0.82540095  0.24218299     1.04300
C1237       C  0.63395309  0.84201225  0.22522590     0.93200
C1238       C  0.63692015  0.78704457  0.25968276     0.92300
C1239       C  0.63574748  0.84080648  0.26124087     0.84500
C1240       C  0.63625185  0.78952121  0.22338343     0.90700
N1241       N  0.05719525  0.33204657  0.16288685    -0.27400
N1242       N  0.06630320  0.35345854  0.16588848    -0.35200
C1243       C  0.08105311  0.35837679  0.17546901     0.01000
C1244       C  0.08138084  0.33921866  0.17859770     0.07000
C1245       C  0.06602806  0.32281986  0.17044349    -0.06100
H1246       H  0.09127932  0.37486079  0.17961295     0.07700
H1247       H  0.06194265  0.30559860  0.16984239     0.08900
Cu1248     Cu  0.05996741  0.37577243  0.15625866     0.44200
Cu1249     Cu  0.03331069  0.31634336  0.14862752     0.42000
Cu1250     Cu  0.02083506  0.35238694  0.12994757     0.43900
N1251       N  0.05360967  0.39506518  0.14371490    -0.34700
N1252       N  0.04002530  0.38654948  0.13374235    -0.29000
C1253       C  0.04098468  0.40336940  0.12684100    -0.05100
C1254       C  0.05568193  0.42349444  0.13280380     0.07100
C1255       C  0.06327762  0.41750338  0.14353383     0.00900
H1256       H  0.03198160  0.40114249  0.11795761     0.08600
H1257       H  0.07532350  0.42863916  0.15055135     0.07600
N1258       N  0.00268234  0.31760591  0.12864648    -0.36200
N1259       N  0.00754988  0.30446398  0.13532118    -0.28400
C1260       C  0.99218620  0.28295208  0.13281970    -0.03600
C1261       C  0.97687515  0.28254571  0.12420177     0.05000
C1262       C  0.98398759  0.30477188  0.12176729     0.03100
H1263       H  0.99168725  0.26868973  0.13733158     0.08200
H1264       H  0.97580962  0.31112403  0.11573683     0.07000
N1265       N  0.63922668  0.92597977  0.17139652    -0.27400
N1266       N  0.61712092  0.91458318  0.17217979    -0.35200
C1267       C  0.61076574  0.89854805  0.18119288     0.01000
C1268       C  0.62968688  0.89972026  0.18632982     0.07000
C1269       C  0.64742774  0.91733519  0.17988583    -0.06100
H1270       H  0.59357311  0.88673253  0.18374181     0.07700
H1271       H  0.66501944  0.92328097  0.18119036     0.08900
Cu1272     Cu  0.59606596  0.92016538  0.16058057     0.44200
Cu1273     Cu  0.65743375  0.95280245  0.15874847     0.42000
Cu1274     Cu  0.62394716  0.96313753  0.13659559     0.43900
N1275       N  0.57916653  0.92674503  0.14635621    -0.34700
N1276       N  0.58962939  0.94190378  0.13728455    -0.29000
C1277       C  0.57457187  0.94074572  0.12876195    -0.05100
C1278       C  0.55345911  0.92425878  0.13269253     0.07100
C1279       C  0.55704125  0.91580951  0.14395443     0.00900
H1280       H  0.57878852  0.95078533  0.12012457     0.08600
H1281       H  0.54455456  0.90229571  0.14978933     0.07600
N1282       N  0.65847588  0.98266895  0.13731012    -0.36200
N1283       N  0.67099415  0.97897454  0.14532777    -0.28400
C1284       C  0.69266196  0.99446285  0.14319180    -0.03600
C1285       C  0.69367068  0.00848070  0.13340212     0.05000
C1286       C  0.67172021  0.00051184  0.12991058     0.03100
H1287       H  0.70663144  0.99542448  0.14833697     0.08200
H1288       H  0.66580923  0.00711362  0.12248255     0.07000
N1289       N  0.86257055  0.17544890  0.10233964    -0.27400
N1290       N  0.86654643  0.18812835  0.09203861    -0.35200
C1291       C  0.88632331  0.20717702  0.09332805     0.01000
C1292       C  0.89540172  0.20665945  0.10499247     0.07000
C1293       C  0.87993765  0.18636050  0.11053597    -0.06100
H1294       H  0.89328273  0.22072285  0.08642191     0.07700
H1295       H  0.88103032  0.18023952  0.11991074     0.08900
Cu1296     Cu  0.84485114  0.18054298  0.07685135     0.44200
Cu1297     Cu  0.83288269  0.14444015  0.10468264     0.42000
Cu1298     Cu  0.79334581  0.12942413  0.07750967     0.43900
N1299       N  0.82122729  0.17164111  0.06261528    -0.34700
N1300       N  0.80196315  0.15249548  0.06267111    -0.29000
C1301       C  0.79009068  0.15172543  0.05224330    -0.05100
C1302       C  0.80260718  0.17142923  0.04539545     0.07100
C1303       C  0.82222317  0.18362937  0.05224491     0.00900
H1304       H  0.77354317  0.13802679  0.04990051     0.08600
H1305       H  0.83615264  0.20005213  0.04989501     0.07600
N1306       N  0.78713662  0.11022187  0.09404071    -0.36200
N1307       N  0.80094695  0.11546917  0.10393589    -0.28400
C1308       C  0.79057264  0.09984127  0.11319240    -0.03600
C1309       C  0.76935687  0.08408444  0.10886588     0.05000
C1310       C  0.76784586  0.09124092  0.09671918     0.03100
H1311       H  0.79773909  0.10015223  0.12247845     0.08200
H1312       H  0.75344548  0.08355671  0.09042337     0.07000
N1313       N  0.27952987  0.33988984  0.16458100    -0.27400
N1314       N  0.28376230  0.36071640  0.16429390    -0.35200
C1315       C  0.26850509  0.36214053  0.17153649     0.01000
C1316       C  0.25402304  0.34124275  0.17665519     0.07000
C1317       C  0.26152363  0.32752777  0.17209184    -0.06100
H1318       H  0.26866360  0.37749937  0.17350631     0.07700
H1319       H  0.25506284  0.31016697  0.17456051     0.08900
Cu1320     Cu  0.31173519  0.38674255  0.15537104     0.44200
Cu1321     Cu  0.30029318  0.33021569  0.15602093     0.42000
Cu1322     Cu  0.35673831  0.37605434  0.14952637     0.43900
N1323       N  0.34179193  0.40963286  0.14666531    -0.34700
N1324       N  0.35860362  0.40613472  0.14500385    -0.29000
C1325       C  0.37497369  0.42347782  0.13842485    -0.05100
C1326       C  0.36806608  0.43852876  0.13570889     0.07100
C1327       C  0.34697020  0.42919216  0.14112532     0.00900
H1328       H  0.39031265  0.42452489  0.13529815     0.08600
H1329       H  0.33579640  0.43567757  0.14058638     0.07600
N1330       N  0.34714135  0.34239626  0.14865368    -0.36200
N1331       N  0.32613020  0.32590623  0.14955500    -0.28400
C1332       C  0.32482249  0.30668500  0.14594867    -0.03600
C1333       C  0.34612893  0.31105529  0.14291145     0.05000
C1334       C  0.35983805  0.33392625  0.14493077     0.03100
H1335       H  0.30933313  0.29079179  0.14526428     0.08200
H1336       H  0.37768454  0.34390974  0.14334059     0.07000
N1337       N  0.29015378  0.95116925  0.17655262    -0.27400
N1338       N  0.28979169  0.93385858  0.17097600    -0.35200
C1339       C  0.27546698  0.91500825  0.17730625     0.01000
C1340       C  0.26632611  0.92040945  0.18749975     0.07000
C1341       C  0.27597034  0.94354703  0.18670918    -0.06100
H1342       H  0.27254242  0.89856607  0.17494327     0.07700
H1343       H  0.27337081  0.95408935  0.19327311     0.08900
Cu1344     Cu  0.31085402  0.93597732  0.15615356     0.44200
Cu1345     Cu  0.31133693  0.98443227  0.17017584     0.42000
Cu1346     Cu  0.35754948  0.98984522  0.15036434     0.43900
N1347       N  0.33767765  0.94106685  0.14482288    -0.34700
N1348       N  0.35568548  0.96103588  0.14331810    -0.29000
C1349       C  0.37097817  0.95897805  0.13648224    -0.05100
C1350       C  0.36212720  0.93657037  0.13345404     0.07100
C1351       C  0.34090720  0.92574945  0.13887305     0.00900
H1352       H  0.38741226  0.97275211  0.13400862     0.08600
H1353       H  0.32885131  0.90797753  0.13870393     0.07600
N1354       N  0.35279976  0.01623050  0.15471355    -0.36200
N1355       N  0.33576944  0.01456970  0.16137008    -0.28400
C1356       C  0.33655667  0.03438592  0.16062652    -0.03600
C1357       C  0.35503237  0.04907280  0.15327538     0.05000
C1358       C  0.36480408  0.03691440  0.14971679     0.03100
H1359       H  0.32412188  0.03759103  0.16464944     0.08200
H1360       H  0.37886295  0.04229102  0.14327171     0.07000
N1361       N  0.38157285  0.22326406  0.12064069    -0.27400
N1362       N  0.37989605  0.22957441  0.10891275    -0.35200
C1363       C  0.37361323  0.24487938  0.10970175     0.01000
C1364       C  0.37174455  0.24898579  0.12257036     0.07000
C1365       C  0.37703150  0.23495135  0.12921565    -0.06100
H1366       H  0.37070678  0.25252972  0.10145540     0.07700
H1367       H  0.37749148  0.23328258  0.13953955     0.08900
Cu1368     Cu  0.38841247  0.21886085  0.09237715     0.44200
Cu1369     Cu  0.38797658  0.19750987  0.12413549     0.42000
Cu1370     Cu  0.40388112  0.17693945  0.09612844     0.43900
N1371       N  0.40276897  0.21003114  0.07774939    -0.34700
N1372       N  0.40881801  0.19493967  0.07907847    -0.29000
C1373       C  0.41900525  0.19435769  0.06815908    -0.05100
C1374       C  0.41942222  0.20987361  0.05961751     0.07100
C1375       C  0.40899404  0.21948018  0.06603137     0.00900
H1376       H  0.42626552  0.18399380  0.06670149     0.08600
H1377       H  0.40680361  0.23292035  0.06259983     0.07600
N1378       N  0.39544030  0.16090193  0.11405752    -0.36200
N1379       N  0.38980738  0.16846248  0.12421462    -0.28400
C1380       C  0.38332381  0.15329678  0.13378028    -0.03600
C1381       C  0.38492067  0.13531156  0.12949033     0.05000
C1382       C  0.39268494  0.14074041  0.11694707     0.03100
H1383       H  0.37671550  0.15466933  0.14293758     0.08200
H1384       H  0.39505587  0.13026326  0.11020881     0.07000
N1385       N  0.18831143  0.70600381  0.02229881    -0.27400
N1386       N  0.20625939  0.70698237  0.02725390    -0.35200
C1387       C  0.19998119  0.68952914  0.03517002     0.01000
C1388       C  0.17689306  0.67703500  0.03543993     0.07000
C1389       C  0.16999576  0.68791827  0.02710974    -0.06100
H1390       H  0.21140406  0.68676785  0.04081668     0.07700
H1391       H  0.15297216  0.68343996  0.02502700     0.08900
Cu1392     Cu  0.23802296  0.73439287  0.02557630     0.44200
Cu1393     Cu  0.19053854  0.73027695  0.00968311     0.42000
Cu1394     Cu  0.24272185  0.78418391  0.01213659     0.43900
N1395       N  0.26444596  0.76607531  0.02933882    -0.34700
N1396       N  0.26573366  0.78462152  0.02512135    -0.29000
C1397       C  0.28365639  0.80230825  0.03054362    -0.05100
C1398       C  0.29403828  0.79436734  0.03852547     0.07100
C1399       C  0.28141563  0.77135273  0.03746617     0.00900
H1400       H  0.28862895  0.81960792  0.02890327     0.08600
H1401       H  0.28407832  0.75927219  0.04246868     0.07600
N1402       N  0.21881712  0.77629251  0.99784273    -0.36200
N1403       N  0.20018381  0.75659300  0.99681124    -0.28400
C1404       C  0.18972684  0.75614236  0.98583124    -0.03600
C1405       C  0.20224172  0.77654319  0.97965963     0.05000
C1406       C  0.22052316  0.78893023  0.98760149     0.03100
H1407       H  0.17447255  0.74174302  0.98237804     0.08200
H1408       H  0.23442174  0.80566279  0.98586137     0.07000
N1409       N  0.12274902  0.56070100  0.06975512    -0.36700
N1410       N  0.10361160  0.52236125  0.08656128    -0.57200
N1411       N  0.08426634  0.54224927  0.10271450    -0.36700
N1412       N  0.10395291  0.58086389  0.08581253    -0.57200
C1413       C  0.13427618  0.55078680  0.06613416     0.26900
C1414       C  0.13457810  0.58221356  0.06579351     0.26900
C1415       C  0.08231328  0.52578147  0.11053591     0.26900
C1416       C  0.08249099  0.55729371  0.11011987     0.26900
C1417       C  0.11017983  0.51429519  0.07674187     0.35500
C1418       C  0.09030598  0.50473253  0.09414551     0.35500
C1419       C  0.11097057  0.59525343  0.07579892     0.35500
C1420       C  0.09077931  0.58554580  0.09307332     0.35500
C1421       C  0.15358156  0.56611859  0.05969032    -0.22000
C1422       C  0.15375108  0.58599420  0.05945566    -0.22000
C1423       C  0.07870255  0.53010920  0.12305561    -0.22000
C1424       C  0.07883916  0.55004138  0.12279595    -0.22000
C1425       C  0.10082627  0.49138575  0.07798933    -0.23000
C1426       C  0.08823249  0.48530819  0.08904133    -0.23000
C1427       C  0.10202724  0.60900397  0.07658340    -0.23000
C1428       C  0.08920511  0.60284959  0.08755123    -0.23000
C1429       C  0.12695686  0.52789041  0.06780112    -0.18400
C1430       C  0.12760611  0.59795715  0.06700268    -0.18400
C1431       C  0.08319231  0.57685208  0.10554338    -0.18400
C1432       C  0.08265153  0.50650010  0.10644700    -0.18400
H1433       H  0.16608918  0.56321423  0.05545490     0.14500
H1434       H  0.16640637  0.60139532  0.05500318     0.14500
H1435       H  0.07614492  0.51992292  0.13147795     0.14500
H1436       H  0.07641109  0.55819457  0.13098514     0.14500
H1437       H  0.10357306  0.48040419  0.07187872     0.12800
H1438       H  0.07926920  0.46864511  0.09311462     0.12800
H1439       H  0.10516791  0.62262466  0.07021797     0.12800
H1440       H  0.08050685  0.61082737  0.09133130     0.12800
H1441       H  0.10650810  0.55259635  0.07335512     0.26100
H1442       H  0.08464933  0.54212640  0.09271329     0.26100
N1443       N  0.50170924  0.79449270  0.02055252    -0.27400
N1444       N  0.48494554  0.77505365  0.02459654    -0.35200
C1445       C  0.47120158  0.77867211  0.03193399     0.01000
C1446       C  0.47976457  0.80148144  0.03279562     0.07000
C1447       C  0.49908797  0.81103694  0.02538161    -0.06100
H1448       H  0.45686712  0.76570536  0.03705477     0.07700
H1449       H  0.51098638  0.82871370  0.02418738     0.08900
Cu1450     Cu  0.48369494  0.74469949  0.02284336     0.44200
Cu1451     Cu  0.52821833  0.79719562  0.00957896     0.42000
Cu1452     Cu  0.53354693  0.74778961  0.01166800     0.43900
N1453       N  0.49053771  0.71928219  0.02578130    -0.34700
N1454       N  0.50986220  0.72130508  0.02262559    -0.29000
C1455       C  0.51084688  0.70395871  0.02758199    -0.05100
C1456       C  0.49099655  0.69007976  0.03405024     0.07100
C1457       C  0.47846714  0.70031690  0.03256059     0.00900
H1458       H  0.52521325  0.70193493  0.02680988     0.08600
H1459       H  0.46205942  0.69480846  0.03649662     0.07600
N1460       N  0.55212310  0.77429418  0.99922474    -0.36200
N1461       N  0.55042284  0.79235769  0.99839042    -0.28400
C1462       C  0.56397737  0.80548774  0.98887544    -0.03600
C1463       C  0.57460859  0.79511943  0.98349168     0.05000
C1464       C  0.56663958  0.77540543  0.99028912     0.03100
H1465       H  0.56561314  0.82116475  0.98590425     0.08200
H1466       H  0.57067130  0.76250446  0.98863486     0.07000
N1467       N  0.41190480  0.84577657  0.07101272    -0.36700
N1468       N  0.45315058  0.86832632  0.08503793    -0.57200
N1469       N  0.43556641  0.89092901  0.10079806    -0.36700
N1470       N  0.39348517  0.86693914  0.08717258    -0.57200
C1471       C  0.42180485  0.83454729  0.06672236     0.26900
C1472       C  0.39002738  0.83351356  0.06788255     0.26900
C1473       C  0.45394594  0.89539762  0.10765101     0.26900
C1474       C  0.42287832  0.89605937  0.10830626     0.26900
C1475       C  0.45977340  0.86038238  0.07517998     0.35500
C1476       C  0.47189965  0.88348397  0.09120955     0.35500
C1477       C  0.37710626  0.85730246  0.07823826     0.35500
C1478       C  0.38931989  0.88089823  0.09410159     0.35500
C1479       C  0.40601088  0.81487021  0.06079288    -0.22000
C1480       C  0.38592228  0.81421983  0.06151568    -0.22000
C1481       C  0.45308768  0.90377715  0.11961454    -0.22000
C1482       C  0.43374817  0.90461707  0.11992816    -0.22000
C1483       C  0.48285411  0.87054813  0.07506006    -0.23000
C1484       C  0.49055279  0.88516392  0.08526005    -0.23000
C1485       C  0.36232817  0.86494632  0.07959646    -0.23000
C1486       C  0.36987636  0.87963672  0.08973241    -0.23000
C1487       C  0.44504854  0.84269615  0.06702384    -0.18400
C1488       C  0.37421805  0.84034904  0.06954323    -0.18400
C1489       C  0.40217420  0.89393581  0.10472890    -0.18400
C1490       C  0.47218381  0.89360571  0.10305368    -0.18400
H1491       H  0.40878793  0.80255216  0.05616051     0.14500
H1492       H  0.37018450  0.80127870  0.05753969     0.14500
H1493       H  0.46540112  0.90928703  0.12722332     0.14500
H1494       H  0.42834636  0.91077976  0.12786912     0.14500
H1495       H  0.49301387  0.86734356  0.06852295     0.12800
H1496       H  0.50785202  0.89545505  0.08817135     0.12800
H1497       H  0.34735048  0.86005432  0.07405910     0.12800
H1498       H  0.36182017  0.88827672  0.09346710     0.12800
H1499       H  0.42006317  0.86224325  0.07421401     0.26100
H1500       H  0.43298575  0.88681665  0.09110255     0.26100
N1501       N  0.42854442  0.57356053  0.06720335    -0.36700
N1502       N  0.47023909  0.59009854  0.08128628    -0.57200
N1503       N  0.44707944  0.55271650  0.09924387    -0.36700
N1504       N  0.40604638  0.53510200  0.08415725    -0.57200
C1505       C  0.44279026  0.59037338  0.05936354     0.26900
C1506       C  0.40951363  0.56064123  0.06048197     0.26900
C1507       C  0.46814111  0.56200487  0.10390634     0.26900
C1508       C  0.43452058  0.53254240  0.10498728     0.26900
C1509       C  0.47651438  0.60789834  0.07345022     0.35500
C1510       C  0.48667432  0.59653189  0.09012669     0.35500
C1511       C  0.38815627  0.53224141  0.07742461     0.35500
C1512       C  0.39795168  0.52094997  0.09427850     0.35500
C1513       C  0.43263857  0.58820690  0.04754133    -0.22000
C1514       C  0.41180058  0.56925890  0.04817706    -0.22000
C1515       C  0.46883512  0.54774965  0.11297835    -0.22000
C1516       C  0.44776706  0.52905461  0.11351009    -0.22000
C1517       C  0.49738111  0.62537889  0.07699165    -0.23000
C1518       C  0.50390819  0.61815043  0.08745707    -0.23000
C1519       C  0.36856654  0.51610623  0.08327826    -0.23000
C1520       C  0.37478073  0.50882833  0.09389930    -0.23000
C1521       C  0.46390675  0.60859886  0.06297555    -0.18400
C1522       C  0.38932588  0.54281999  0.06557315    -0.18400
C1523       C  0.41114333  0.51782944  0.10344722    -0.18400
C1524       C  0.48643975  0.58348215  0.10071845    -0.18400
H1525       H  0.43933503  0.59925364  0.03933122     0.14500
H1526       H  0.39939791  0.56304879  0.04059592     0.14500
H1527       H  0.48299502  0.55051284  0.11871081     0.14500
H1528       H  0.44266959  0.51478369  0.11974837     0.14500
H1529       H  0.50692753  0.64165991  0.07250160     0.12800
H1530       H  0.51949339  0.62792522  0.09260494     0.12800
H1531       H  0.35158221  0.50992926  0.08010590     0.12800
H1532       H  0.36353494  0.49602222  0.10056024     0.12800
H1533       H  0.43046009  0.57299764  0.07705860     0.26100
H1534       H  0.44114879  0.56070444  0.09353149     0.26100
N1535       N  0.19246542  0.48212268  0.02692425    -0.27400
N1536       N  0.20921197  0.49749177  0.03384919    -0.35200
C1537       C  0.20176207  0.50798654  0.04135983     0.01000
C1538       C  0.17899585  0.49838118  0.03946329     0.07000
C1539       C  0.17365004  0.48204107  0.03015662    -0.06100
H1540       H  0.21210908  0.52122963  0.04804455     0.07700
H1541       H  0.15727456  0.47065702  0.02621707     0.08900
Cu1542     Cu  0.24093759  0.50205757  0.03409534     0.44200
Cu1543     Cu  0.19715882  0.46309607  0.01318768     0.42000
Cu1544     Cu  0.25634411  0.47857694  0.00869926     0.43900
N1545       N  0.27166068  0.50429712  0.03338788    -0.34700
N1546       N  0.27812259  0.49686846  0.02359493    -0.29000
C1547       C  0.29920523  0.50162921  0.02575003    -0.05100
C1548       C  0.30617011  0.51221309  0.03762131     0.07100
C1549       C  0.28810198  0.51341762  0.04217486     0.00900
H1550       H  0.30865473  0.49747536  0.01922031     0.08600
H1551       H  0.28691002  0.52031803  0.05126929     0.07600
N1552       N  0.22982464  0.45674134  0.99690142    -0.36200
N1553       N  0.20859354  0.45062165  0.99874624    -0.28400
C1554       C  0.19606585  0.43604353  0.98946545    -0.03600
C1555       C  0.21004256  0.43287970  0.98143548     0.05000
C1556       C  0.23128818  0.44625925  0.98638199     0.03100
H1557       H  0.17817517  0.42866265  0.98848012     0.08200
H1558       H  0.24670403  0.44832154  0.98257130     0.07000
N1559       N  0.65453858  0.72130832  0.16739855    -0.27400
N1560       N  0.63243719  0.70942409  0.16743542    -0.35200
C1561       C  0.62454766  0.71802017  0.17610003     0.01000
C1562       C  0.64241557  0.73599778  0.18214678     0.07000
C1563       C  0.66125149  0.73763057  0.17634262    -0.06100
H1564       H  0.60696893  0.71153027  0.17791177     0.07700
H1565       H  0.67853925  0.74968923  0.17853187     0.08900
Cu1566     Cu  0.61340598  0.68181968  0.15589403     0.44200
Cu1567     Cu  0.67377455  0.71435703  0.15467468     0.42000
Cu1568     Cu  0.64054542  0.67581257  0.12852436     0.43900
N1569       N  0.59637018  0.65852720  0.14161326    -0.34700
N1570       N  0.60605911  0.65773804  0.13086976    -0.29000
C1571       C  0.59020570  0.64335428  0.12269285    -0.05100
C1572       C  0.56950796  0.63439533  0.12866625     0.07100
C1573       C  0.57421794  0.64425228  0.14073878     0.00900
H1574       H  0.59345817  0.64009990  0.11299325     0.08600
H1575       H  0.56235635  0.64190550  0.14819344     0.07600
N1576       N  0.67476826  0.68946200  0.13081740    -0.36200
N1577       N  0.68685826  0.70274567  0.14038668    -0.28400
C1578       C  0.70767566  0.70592880  0.13964012    -0.03600
C1579       C  0.70863753  0.69404487  0.12914962     0.05000
C1580       C  0.68749911  0.68398848  0.12378640     0.03100
H1581       H  0.72087308  0.71543862  0.14651550     0.08200
H1582       H  0.68149681  0.67265565  0.11566338     0.07000
N1583       N  0.05844365  0.71987661  0.17147888    -0.27400
N1584       N  0.07134527  0.71101539  0.17173178    -0.35200
C1585       C  0.08838750  0.72282864  0.17992786     0.01000
C1586       C  0.08625422  0.74001436  0.18507052     0.07000
C1587       C  0.06705938  0.73761231  0.17949494    -0.06100
H1588       H  0.10160675  0.71937873  0.18185772     0.07700
H1589       H  0.06013159  0.74827195  0.18094578     0.08900
Cu1590     Cu  0.06670098  0.68437585  0.16026795     0.44200
Cu1591     Cu  0.03050434  0.70856160  0.15960338     0.42000
Cu1592     Cu  0.02813207  0.67164658  0.13440186     0.43900
N1593       N  0.06087959  0.66074239  0.14614571    -0.34700
N1594       N  0.04726229  0.65684393  0.13635660    -0.29000
C1595       C  0.04747246  0.64153165  0.12856028    -0.05100
C1596       C  0.06179200  0.63526223  0.13370203     0.07100
C1597       C  0.07001146  0.64780433  0.14488159     0.00900
H1598       H  0.03792426  0.63543753  0.11975554     0.08600
H1599       H  0.08184453  0.64764000  0.15155600     0.07600
N1600       N  0.00657236  0.68379689  0.13553070    -0.36200
N1601       N  0.00653192  0.69646224  0.14501147    -0.28400
C1602       C  0.98931033  0.69988390  0.14324341    -0.03600
C1603       C  0.97812187  0.68889806  0.13207735     0.05000
C1604       C  0.98965688  0.67902435  0.12745055     0.03100
H1605       H  0.98510838  0.70944458  0.14966109     0.08200
H1606       H  0.98577387  0.66872963  0.11893223     0.07000
N1607       N  0.80722221  0.67682094  0.10402046    -0.27400
N1608       N  0.79321685  0.66788596  0.09423709    -0.35200
C1609       C  0.77498412  0.66935827  0.09654462     0.01000
C1610       C  0.77759665  0.67972241  0.10832233     0.07000
C1611       C  0.79822622  0.68421611  0.11281360    -0.06100
H1612       H  0.76072648  0.66311879  0.09017990     0.07700
H1613       H  0.80597106  0.69199488  0.12186866     0.08900
Cu1614     Cu  0.79921653  0.65368303  0.07820344     0.44200
Cu1615     Cu  0.83785673  0.67829805  0.10483797     0.42000
Cu1616     Cu  0.85295829  0.65776123  0.07644874     0.43900
N1617       N  0.80871966  0.64070555  0.06303423    -0.34700
N1618       N  0.82857071  0.64254838  0.06225823    -0.29000
C1619       C  0.82945201  0.63237203  0.05141859    -0.05100
C1620       C  0.80915941  0.62365395  0.04511211     0.07100
C1621       C  0.79641244  0.62920805  0.05275006     0.00900
H1622       H  0.84363599  0.63103591  0.04847058     0.08600
H1623       H  0.77938288  0.62503915  0.05100531     0.07600
N1624       N  0.87327294  0.67122255  0.09259804    -0.36200
N1625       N  0.86774467  0.67848000  0.10293071    -0.28400
C1626       C  0.88391556  0.68478753  0.11185205    -0.03600
C1627       C  0.90035927  0.68133699  0.10689853     0.05000
C1628       C  0.89306619  0.67269827  0.09470021     0.03100
H1629       H  0.88335159  0.69066395  0.12140742     0.08200
H1630       H  0.90116706  0.66713316  0.08802918     0.07000
O1631       O  0.18925888  0.85658253  0.23015375    -0.73000
O1632       O  0.14828363  0.81083837  0.25642720    -0.74000
O1633       O  0.19052817  0.85162517  0.25700446    -0.62600
O1634       O  0.14661184  0.81584108  0.22914378    -0.71000
O1635       O  0.16374737  0.79668962  0.22617081    -0.70600
O1636       O  0.20695658  0.83190771  0.25470553    -0.61800
O1637       O  0.16488770  0.79119836  0.25327603    -0.74300
O1638       O  0.20604768  0.83724894  0.22730568    -0.73100
Cu1639     Cu  0.16803938  0.83432430  0.24327606     1.04600
Cu1640     Cu  0.18602143  0.81361452  0.24025170     1.04300
C1641       C  0.20444809  0.85434258  0.22465566     0.93200
C1642       C  0.15012513  0.79384152  0.25897303     0.92300
C1643       C  0.20570968  0.84755922  0.26038136     0.84500
C1644       C  0.14824184  0.80062300  0.22322671     0.90700
C1645       C  0.12467297  0.77084823  0.19138155    -0.01900
C1646       C  0.10169042  0.75741498  0.19431589     0.07800
C1647       C  0.09374442  0.76018311  0.20627378    -0.02000
C1648       C  0.10878785  0.77553911  0.21539859    -0.02000
C1649       C  0.13203769  0.78722837  0.21294775     0.07900
C1650       C  0.13983645  0.78531922  0.20074897    -0.02200
Br1651     Br  0.17125163  0.80344853  0.19661215    -0.00800
Br1652     Br  0.13529924  0.77043200  0.17427106    -0.00800
Br1653     Br  0.09735697  0.77995779  0.23137176    -0.00800
Br1654     Br  0.06246856  0.74184128  0.21063474    -0.00800
C1655       C  0.93876280  0.66586487  0.12391605    -0.01900
C1656       C  0.95774678  0.68715587  0.12634754     0.07800
C1657       C  0.95748437  0.70659822  0.12271279    -0.02000
C1658       C  0.93864556  0.70470778  0.11640829    -0.02000
C1659       C  0.91993585  0.68344049  0.11379675     0.07900
C1660       C  0.91993209  0.66405538  0.11771065    -0.02200
Br1661     Br  0.89375070  0.63492662  0.11490036    -0.00800
Br1662     Br  0.93797010  0.63897268  0.12949500    -0.00800
Br1663     Br  0.93881239  0.73122757  0.11078438    -0.00800
Br1664     Br  0.98334278  0.73587032  0.12564326    -0.00800
C1665       C  0.74053848  0.66542235  0.11907183    -0.01900
C1666       C  0.76102080  0.68373709  0.11488783     0.07800
C1667       C  0.76505557  0.70566210  0.11640188    -0.02000
C1668       C  0.74817036  0.70915926  0.12135796    -0.02000
C1669       C  0.72728264  0.69074325  0.12507451     0.07900
C1670       C  0.72382526  0.66889087  0.12424437    -0.02200
Br1671     Br  0.69650119  0.64356287  0.13062284    -0.00800
Br1672     Br  0.73557700  0.63548352  0.11796864    -0.00800
Br1673     Br  0.75321232  0.73911445  0.12217316    -0.00800
Br1674     Br  0.79335502  0.73086662  0.11108744    -0.00800
C1675       C  0.50942632  0.61145095  0.11762761    -0.01900
C1676       C  0.50627815  0.59391920  0.10943981     0.07800
C1677       C  0.52295548  0.58819202  0.10862267    -0.02000
C1678       C  0.54297099  0.60044229  0.11566355    -0.02000
C1679       C  0.54713966  0.61955262  0.12279987     0.07900
C1680       C  0.53009778  0.62491130  0.12377759    -0.02200
Br1681     Br  0.53533394  0.65202149  0.13212755    -0.00800
Br1682     Br  0.48555017  0.61769650  0.11980865    -0.00800
Br1683     Br  0.56422447  0.59041866  0.11576270    -0.00800
Br1684     Br  0.51869813  0.56404709  0.09752538    -0.00800
C1685       C  0.33706094  0.50624715  0.04553866    -0.01900
C1686       C  0.32794903  0.52027983  0.04427928     0.07800
C1687       C  0.33945281  0.54194423  0.04980670    -0.02000
C1688       C  0.35910671  0.54899891  0.05698619    -0.02000
C1689       C  0.36824985  0.53506546  0.05809983     0.07900
C1690       C  0.35746750  0.51391884  0.05207005    -0.02200
Br1691     Br  0.37089280  0.49554324  0.05264586    -0.00800
Br1692     Br  0.32110035  0.47584552  0.03923565    -0.00800
Br1693     Br  0.37337117  0.57775648  0.06552112    -0.00800
Br1694     Br  0.32929419  0.56279638  0.04704974    -0.00800
C1695       C  0.46999311  0.80830384  0.05494758    -0.01900
C1696       C  0.47187967  0.81288778  0.04159681     0.07800
C1697       C  0.46557722  0.82781203  0.03672437    -0.02000
C1698       C  0.45694563  0.83758049  0.04506166    -0.02000
C1699       C  0.45437824  0.83238965  0.05829579     0.07900
C1700       C  0.46105772  0.81782741  0.06322693    -0.02200
Br1701     Br  0.45776418  0.81076332  0.08135098    -0.00800
Br1702     Br  0.48078508  0.78995521  0.06213758    -0.00800
Br1703     Br  0.44883734  0.85839805  0.03843514    -0.00800
Br1704     Br  0.46800860  0.83438604  0.01857045    -0.00800
C1705       C  0.48841572  0.65266983  0.03649372    -0.01900
C1706       C  0.48507714  0.66960714  0.04167039     0.07800
C1707       C  0.47604040  0.66683361  0.05422065    -0.02000
C1708       C  0.46924521  0.64692239  0.06109192    -0.02000
C1709       C  0.47247037  0.63009626  0.05584953     0.07900
C1710       C  0.48286931  0.63340426  0.04377546    -0.02200
Br1711     Br  0.48926263  0.61128148  0.03724108    -0.00800
Br1712     Br  0.49877995  0.65455282  0.01904703    -0.00800
Br1713     Br  0.45530496  0.64251927  0.07778461    -0.00800
Br1714     Br  0.47392821  0.69053323  0.06256845    -0.00800
C1715       C  0.05534034  0.58339419  0.11727275    -0.01900
C1716       C  0.07773885  0.59028545  0.11441834     0.07800
C1717       C  0.09506103  0.61120346  0.11890570    -0.02000
C1718       C  0.08997412  0.62585137  0.12537284    -0.02000
C1719       C  0.06748175  0.61920319  0.12798530     0.07900
C1720       C  0.05026320  0.59754465  0.12433511    -0.02200
Br1721     Br  0.01968656  0.58683064  0.12931605    -0.00800
Br1722     Br  0.03155993  0.55510815  0.11084684    -0.00800
Br1723     Br  0.11392593  0.65567366  0.12954388    -0.00800
Br1724     Br  0.12588109  0.62005920  0.11577734    -0.00800
C1725       C  0.14879883  0.50829831  0.04019572    -0.01900
C1726       C  0.16388999  0.50375179  0.04670449     0.07800
C1727       C  0.16549847  0.50563489  0.06027911    -0.02000
C1728       C  0.15351663  0.51357539  0.06711639    -0.02000
C1729       C  0.13870222  0.51834709  0.06059732     0.07900
C1730       C  0.13591018  0.51510107  0.04718282    -0.02200
Br1731     Br  0.11455188  0.52032915  0.03840692    -0.00800
Br1732     Br  0.14671514  0.50690330  0.02166562    -0.00800
Br1733     Br  0.15831876  0.51899417  0.08540226    -0.00800
Br1734     Br  0.18326211  0.49641334  0.06982931    -0.00800
C1735       C  0.33474980  0.82316197  0.04093977    -0.01900
C1736       C  0.31421452  0.80728472  0.04660509     0.07800
C1737       C  0.31329332  0.80280324  0.05992878    -0.02000
C1738       C  0.33291088  0.81336910  0.06738800    -0.02000
C1739       C  0.35341521  0.82904196  0.06168288     0.07900
C1740       C  0.35423439  0.83417576  0.04849941    -0.02200
Br1741     Br  0.38217193  0.85639334  0.04081565    -0.00800
Br1742     Br  0.33665393  0.82907936  0.02269646    -0.00800
Br1743     Br  0.33185837  0.80610942  0.08540613    -0.00800
Br1744     Br  0.28503688  0.78301235  0.06819899    -0.00800
C1745       C  0.14630243  0.63694147  0.03814116    -0.01900
C1746       C  0.16294868  0.65727330  0.04367415     0.07800
C1747       C  0.16697816  0.65836880  0.05707516    -0.02000
C1748       C  0.15530988  0.63904124  0.06470775    -0.02000
C1749       C  0.13908573  0.61868001  0.05909240     0.07900
C1750       C  0.13427490  0.61777642  0.04587280    -0.02200
Br1751     Br  0.11119668  0.59008058  0.03839837    -0.00800
Br1752     Br  0.14073125  0.63472435  0.01985822    -0.00800
Br1753     Br  0.16200272  0.64025810  0.08282940    -0.00800
Br1754     Br  0.18773881  0.68646234  0.06524295    -0.00800
C1755       C  0.22915380  0.90088711  0.19904323    -0.01900
C1756       C  0.25093173  0.90460157  0.19751548     0.07800
C1757       C  0.25756821  0.89212343  0.20505472    -0.02000
C1758       C  0.24279061  0.87642900  0.21416340    -0.02000
C1759       C  0.22045371  0.87174345  0.21530358     0.07900
C1760       C  0.21375863  0.88407119  0.20750011    -0.02200
Br1761     Br  0.18307258  0.87710533  0.20738755    -0.00800
Br1762     Br  0.22003190  0.91827947  0.18908548    -0.00800
Br1763     Br  0.25428576  0.86267077  0.22549322    -0.00800
Br1764     Br  0.28739643  0.89697345  0.20323545    -0.00800
C1765       C  0.38756874  0.11189137  0.14709941    -0.01900
C1766       C  0.37653714  0.11347001  0.13611319     0.07800
C1767       C  0.35730379  0.09408404  0.13148299    -0.02000
C1768       C  0.34962361  0.07321508  0.13751160    -0.02000
C1769       C  0.36122168  0.07146419  0.14813752     0.07900
C1770       C  0.38010581  0.09091169  0.15297941    -0.02200
Br1771     Br  0.39574591  0.08869213  0.16768505    -0.00800
Br1772     Br  0.41329250  0.13837823  0.15388867    -0.00800
Br1773     Br  0.32348319  0.04683216  0.13097459    -0.00800
Br1774     Br  0.34101125  0.09616593  0.11706028    -0.00800
C1775       C  0.39368985  0.92482739  0.10755529    -0.01900
C1776       C  0.39315335  0.90568924  0.11255226     0.07800
C1777       C  0.38285404  0.89705209  0.12456093    -0.02000
C1778       C  0.37383245  0.90786486  0.13167680    -0.02000
C1779       C  0.37321880  0.92625604  0.12635604     0.07900
C1780       C  0.38304601  0.93454115  0.11417071    -0.02200
Br1781     Br  0.38053686  0.95804031  0.10593292    -0.00800
Br1782     Br  0.40855238  0.93735905  0.09138145    -0.00800
Br1783     Br  0.36364099  0.89814364  0.14905288    -0.00800
Br1784     Br  0.38042368  0.86992206  0.13111285    -0.00800
C1785       C  0.36766101  0.30129361  0.12723822    -0.01900
C1786       C  0.35260995  0.29508769  0.13772007     0.07800
C1787       C  0.34374703  0.27347869  0.14312775    -0.02000
C1788       C  0.34936225  0.25822487  0.13791765    -0.02000
C1789       C  0.36536319  0.26491079  0.12792946     0.07900
C1790       C  0.37483998  0.28679590  0.12285035    -0.02200
Br1791     Br  0.39883245  0.29794365  0.11037877    -0.00800
Br1792     Br  0.37723502  0.32878185  0.11787223    -0.00800
Br1793     Br  0.33367950  0.22767720  0.14404632    -0.00800
Br1794     Br  0.32461187  0.26461859  0.15811964    -0.00800
C1795       C  0.38548223  0.45751548  0.11469829    -0.01900
C1796       C  0.37944244  0.45889034  0.12752087     0.07800
C1797       C  0.38368041  0.47970719  0.13236727    -0.02000
C1798       C  0.39389979  0.49891599  0.12450278    -0.02000
C1799       C  0.39988420  0.49746604  0.11174358     0.07900
C1800       C  0.39556491  0.47672802  0.10684780    -0.02200
Br1801     Br  0.40346843  0.47475084  0.08927822    -0.00800
Br1802     Br  0.37912387  0.42923353  0.10751475    -0.00800
Br1803     Br  0.39969036  0.52732727  0.13112297    -0.00800
Br1804     Br  0.37639406  0.48227470  0.14996744    -0.00800
C1805       C  0.72413198  0.02437521  0.11686042    -0.01900
C1806       C  0.71382141  0.02767692  0.12761649     0.07800
C1807       C  0.72224070  0.04944362  0.13251626    -0.02000
C1808       C  0.74078301  0.06788454  0.12661555    -0.02000
C1809       C  0.75116657  0.06460677  0.11584246     0.07900
C1810       C  0.74290830  0.04272638  0.11109211    -0.02200
Br1811     Br  0.75765692  0.03779682  0.09683720    -0.00800
Br1812     Br  0.71203365  0.99471207  0.10980653    -0.00800
Br1813     Br  0.75103830  0.09773920  0.13284580    -0.00800
Br1814     Br  0.70782152  0.05397944  0.14709199    -0.00800
C1815       C  0.51750137  0.89329007  0.12325726    -0.01900
C1816       C  0.53207386  0.91636872  0.12567744     0.07800
C1817       C  0.52651761  0.93196433  0.12087120    -0.02000
C1818       C  0.50731378  0.92464787  0.11321443    -0.02000
C1819       C  0.49239245  0.90160009  0.11131750     0.07900
C1820       C  0.49724295  0.88593512  0.11669024    -0.02200
Br1821     Br  0.47606940  0.85422477  0.11497923    -0.00800
Br1822     Br  0.52594479  0.87160605  0.12760531    -0.00800
Br1823     Br  0.50195494  0.94622066  0.10480811    -0.00800
Br1824     Br  0.54442480  0.96333725  0.12515714    -0.00800
C1825       C  0.91532114  0.23942876  0.11982027    -0.01900
C1826       C  0.91627568  0.22513844  0.11055176     0.07800
C1827       C  0.93717193  0.22969571  0.10578545    -0.02000
C1828       C  0.95704883  0.24832391  0.11038032    -0.02000
C1829       C  0.95608109  0.26263694  0.11962984     0.07900
C1830       C  0.93518467  0.25804494  0.12441859    -0.02200
Br1831     Br  0.93378460  0.27705675  0.13746277    -0.00800
Br1832     Br  0.88672269  0.23421684  0.12567070    -0.00800
Br1833     Br  0.98559169  0.25470772  0.10368812    -0.00800
Br1834     Br  0.93849134  0.21057145  0.09279138    -0.00800
C1835       C  0.04653697  0.45158353  0.12404570    -0.01900
C1836       C  0.06279788  0.44634284  0.12796768     0.07800
C1837       C  0.08574768  0.46250857  0.12635447    -0.02000
C1838       C  0.09216526  0.48316097  0.12043627    -0.02000
C1839       C  0.07583177  0.48741323  0.11549210     0.07900
C1840       C  0.05302713  0.47179235  0.11755503    -0.02200
Br1841     Br  0.03064680  0.47742165  0.11063497    -0.00800
Br1842     Br  0.01525059  0.43130947  0.12765961    -0.00800
Br1843     Br  0.12348106  0.50536455  0.11841897    -0.00800
Br1844     Br  0.10868768  0.45590817  0.13086451    -0.00800
C1845       C  0.62606326  0.75222887  0.21366154    -0.01900
C1846       C  0.63701275  0.77573634  0.21261135     0.07800
C1847       C  0.64976224  0.78620188  0.20146123    -0.02000
C1848       C  0.65211807  0.77339393  0.19169517    -0.02000
C1849       C  0.64109815  0.74982458  0.19274133     0.07900
C1850       C  0.62792384  0.73933569  0.20378380    -0.02200
Br1851     Br  0.61333876  0.70725712  0.20595529    -0.00800
Br1852     Br  0.60948294  0.73752325  0.22898337    -0.00800
Br1853     Br  0.66981034  0.78835675  0.17666681    -0.00800
Br1854     Br  0.66289813  0.81807816  0.19912574    -0.00800
C1855       C  0.64364273  0.88013987  0.21735517    -0.01900
C1856       C  0.63274937  0.85680289  0.21536380     0.07800
C1857       C  0.62044432  0.84753782  0.20393549    -0.02000
C1858       C  0.61939863  0.86151626  0.19448179    -0.02000
C1859       C  0.63065090  0.88493887  0.19635089     0.07900
C1860       C  0.64264612  0.89414723  0.20788493    -0.02200
Br1861     Br  0.65666418  0.92586178  0.21112651    -0.00800
Br1862     Br  0.65871844  0.89282151  0.23345163    -0.00800
Br1863     Br  0.60329036  0.84840926  0.17870409    -0.00800
Br1864     Br  0.60567727  0.81565813  0.20090887    -0.00800
C1865       C  0.13420622  0.35204089  0.19626815    -0.01900
C1866       C  0.12554068  0.33704106  0.20682213     0.07800
C1867       C  0.10213103  0.32206072  0.20772581    -0.02000
C1868       C  0.08767675  0.32243724  0.19836312    -0.02000
C1869       C  0.09644420  0.33745858  0.18793501     0.07900
C1870       C  0.11974725  0.35168000  0.18670468    -0.02200
Br1871     Br  0.13209701  0.36973940  0.17139651    -0.00800
Br1872     Br  0.16589078  0.37333620  0.19450420    -0.00800
Br1873     Br  0.05571229  0.30303975  0.20020166    -0.00800
Br1874     Br  0.08923760  0.30204247  0.22224697    -0.00800
C1875       C  0.20103331  0.33159483  0.19295465    -0.01900
C1876       C  0.20676930  0.33234513  0.20602146     0.07800
C1877       C  0.22661503  0.33282669  0.20933946    -0.02000
C1878       C  0.24168198  0.33470340  0.19967479    -0.02000
C1879       C  0.23689580  0.33607593  0.18664023     0.07900
C1880       C  0.21622751  0.33380259  0.18327080    -0.02200
Br1881     Br  0.20879150  0.33364073  0.16538049    -0.00800
Br1882     Br  0.17212293  0.32681889  0.18835449    -0.00800
Br1883     Br  0.26927601  0.33629315  0.20434886    -0.00800
Br1884     Br  0.23291293  0.33055770  0.22713982    -0.00800
C1885       C  0.10279477  0.73997288  0.27336957    -0.01900
C1886       C  0.10351759  0.74611658  0.28639476     0.07800
C1887       C  0.12066973  0.76736927  0.29055007    -0.02000
C1888       C  0.13633772  0.78266474  0.28164835    -0.02000
C1889       C  0.13486096  0.77701430  0.26850652     0.07900
C1890       C  0.11853829  0.75529913  0.26448849    -0.02200
Br1891     Br  0.11781221  0.74647078  0.24681143    -0.00800
Br1892     Br  0.07971740  0.71082018  0.26754506    -0.00800
Br1893     Br  0.16102289  0.81059367  0.28765435    -0.00800
Br1894     Br  0.12351566  0.77512804  0.30857799    -0.00800
C1895       C  0.95404100  0.68123800  0.36860079    -0.01900
C1896       C  0.96088258  0.68825233  0.35575394     0.07800
C1897       C  0.94778239  0.69409689  0.34811048    -0.02000
C1898       C  0.92916416  0.69420937  0.35346072    -0.02000
C1899       C  0.92141583  0.68554546  0.36594996     0.07900
C1900       C  0.93361176  0.67817418  0.37324240    -0.02200
Br1901     Br  0.92159441  0.66144775  0.38901204    -0.00800
Br1902     Br  0.97309592  0.67726724  0.38049604    -0.00800
Br1903     Br  0.91526203  0.70744636  0.34365671    -0.00800
Br1904     Br  0.95358952  0.70007718  0.32993029    -0.00800
C1905       C  0.61968222  0.73341735  0.27899396    -0.01900
C1906       C  0.63744972  0.74065051  0.28782363     0.07800
C1907       C  0.65542793  0.76298689  0.28718997    -0.02000
C1908       C  0.65586837  0.77773608  0.27767151    -0.02000
C1909       C  0.63725587  0.77102684  0.26934185     0.07900
C1910       C  0.61882791  0.74868786  0.27042759    -0.02200
Br1911     Br  0.59162612  0.73792780  0.26056966    -0.00800
Br1912     Br  0.59709871  0.70195713  0.27780664    -0.00800
Br1913     Br  0.68214185  0.80732986  0.27678876    -0.00800
Br1914     Br  0.67896222  0.77417795  0.29994341    -0.00800
C1915       C  0.73606336  0.68490570  0.35256656    -0.01900
C1916       C  0.71624038  0.66667703  0.34756928     0.07800
C1917       C  0.71408145  0.64539408  0.34675224    -0.02000
C1918       C  0.73111797  0.64210604  0.35154335    -0.02000
C1919       C  0.75062763  0.66019504  0.35684628     0.07900
C1920       C  0.75329963  0.68169226  0.35707597    -0.02200
Br1921     Br  0.78025109  0.70654658  0.36414248    -0.00800
Br1922     Br  0.73899960  0.71392979  0.35417016    -0.00800
Br1923     Br  0.72751637  0.61270723  0.35121033    -0.00800
Br1924     Br  0.68788435  0.62077724  0.33890535    -0.00800
C1925       C  0.50373907  0.60572120  0.36958585    -0.01900
C1926       C  0.49883326  0.58505684  0.37488518     0.07800
C1927       C  0.51335515  0.57693974  0.37256477    -0.02000
C1928       C  0.53272648  0.58944355  0.36498621    -0.02000
C1929       C  0.53851820  0.61093199  0.36032896     0.07900
C1930       C  0.52373544  0.61892400  0.36269618    -0.02200
Br1931     Br  0.53110330  0.64863413  0.35757791    -0.00800
Br1932     Br  0.48287167  0.61599929  0.37190058    -0.00800
Br1933     Br  0.55033596  0.57616954  0.36046727    -0.00800
Br1934     Br  0.50698421  0.54895844  0.38016379    -0.00800
C1935       C  0.35920749  0.51707556  0.43836348    -0.01900
C1936       C  0.35966369  0.51778610  0.42479907     0.07800
C1937       C  0.33959614  0.51049071  0.41796712    -0.02000
C1938       C  0.31913897  0.50142523  0.42459433    -0.02000
C1939       C  0.31878588  0.50222634  0.43821895     0.07900
C1940       C  0.33917338  0.51063552  0.44504473    -0.02200
Br1941     Br  0.34065348  0.51548137  0.46341145    -0.00800
Br1942     Br  0.38607797  0.52463516  0.44782276    -0.00800
Br1943     Br  0.29179491  0.48640932  0.41469581    -0.00800
Br1944     Br  0.34008266  0.51379855  0.39948589    -0.00800
C1945       C  0.08824070  0.61797846  0.35342696    -0.01900
C1946       C  0.06551329  0.61217592  0.35381066     0.07800
C1947       C  0.05031074  0.59390106  0.36158858    -0.02000
C1948       C  0.05811386  0.58338743  0.36990227    -0.02000
C1949       C  0.08066213  0.58917560  0.36943456     0.07900
C1950       C  0.09546779  0.60592893  0.36085337    -0.02200
Br1951     Br  0.12622093  0.61314942  0.35987070    -0.00800
Br1952     Br  0.11046470  0.64352348  0.34382471    -0.00800
Br1953     Br  0.03819061  0.56203930  0.38247429    -0.00800
Br1954     Br  0.01847031  0.58203812  0.36043352    -0.00800
C1955       C  0.14147050  0.62693654  0.43692778    -0.01900
C1956       C  0.14815337  0.62607973  0.42425648     0.07800
C1957       C  0.16716170  0.64482387  0.41900120    -0.02000
C1958       C  0.17927371  0.66448514  0.42632579    -0.02000
C1959       C  0.17356202  0.66491184  0.43936481     0.07900
C1960       C  0.15449019  0.64595924  0.44461409    -0.02200
Br1961     Br  0.14684957  0.64488161  0.46257290    -0.00800
Br1962     Br  0.11468825  0.60158792  0.44380634    -0.00800
Br1963     Br  0.20272171  0.69104155  0.41802375    -0.00800
Br1964     Br  0.17718250  0.64315708  0.40191780    -0.00800
C1965       C  0.13358640  0.50846474  0.43596353    -0.01900
C1966       C  0.14540745  0.52422261  0.42620571     0.07800
C1967       C  0.16821888  0.53183925  0.42423592    -0.02000
C1968       C  0.17932692  0.52443514  0.43227648    -0.02000
C1969       C  0.16708817  0.50683407  0.44116574     0.07900
C1970       C  0.14405799  0.49901811  0.44304067    -0.02200
Br1971     Br  0.12623043  0.47476848  0.45472922    -0.00800
Br1972     Br  0.10301228  0.49993327  0.43953580    -0.00800
Br1973     Br  0.21167952  0.54062491  0.43191603    -0.00800
Br1974     Br  0.18438693  0.55257814  0.41044182    -0.00800
C1975       C  0.47744413  0.65642152  0.43051480    -0.01900
C1976       C  0.47717081  0.65438984  0.44406411     0.07800
C1977       C  0.47046800  0.63335831  0.44961555    -0.02000
C1978       C  0.46360766  0.61446761  0.44170345    -0.02000
C1979       C  0.46282245  0.61631435  0.42821991     0.07900
C1980       C  0.46985782  0.63738271  0.42265012    -0.02200
Br1981     Br  0.46814237  0.64002104  0.40424879    -0.00800
Br1982     Br  0.48900759  0.68540870  0.42256664    -0.00800
Br1983     Br  0.45495644  0.58584766  0.44932262    -0.00800
Br1984     Br  0.46923872  0.62995299  0.46807630    -0.00800
C1985       C  0.47694958  0.82326419  0.44744641    -0.01900
C1986       C  0.47994119  0.80679293  0.44136446     0.07800
C1987       C  0.47520823  0.80246554  0.42808019    -0.02000
C1988       C  0.46671583  0.81383887  0.42112014    -0.02000
C1989       C  0.46425865  0.83058183  0.42716133     0.07900
C1990       C  0.46962576  0.83544622  0.44027913    -0.02200
Br1991     Br  0.46690520  0.85893115  0.44842312    -0.00800
Br1992     Br  0.48135489  0.82839567  0.46575339    -0.00800
Br1993     Br  0.45782705  0.80611563  0.40338263    -0.00800
Br1994     Br  0.48151766  0.78199110  0.41907401    -0.00800
C1995       C  0.37030739  0.84390307  0.44465681    -0.01900
C1996       C  0.37055408  0.84142393  0.43120834     0.07800
C1997       C  0.35043977  0.82735461  0.42461822    -0.02000
C1998       C  0.33019655  0.81563595  0.43143979    -0.02000
C1999       C  0.33002544  0.81717822  0.44498988     0.07900
C2000       C  0.35011142  0.83171987  0.45156032    -0.02200
Br2001     Br  0.35033456  0.83419686  0.47005897    -0.00800
Br2002     Br  0.39780567  0.86372759  0.45357630    -0.00800
Br2003     Br  0.30259872  0.79830761  0.42202792    -0.00800
Br2004     Br  0.35078065  0.82339776  0.40623717    -0.00800
C2005       C  0.25995899  0.88017052  0.27983175    -0.01900
C2006       C  0.25359777  0.88995711  0.28956378     0.07800
C2007       C  0.23127200  0.88502147  0.29008220    -0.02000
C2008       C  0.21586690  0.87178028  0.28045634    -0.02000
C2009       C  0.22196783  0.86136191  0.27078024     0.07900
C2010       C  0.24404559  0.86504780  0.27095786    -0.02200
Br2011     Br  0.25355955  0.85007023  0.25913094    -0.00800
Br2012     Br  0.29103062  0.88885170  0.27786839    -0.00800
Br2013     Br  0.18639641  0.86822888  0.28115733    -0.00800
Br2014     Br  0.22107281  0.89513335  0.30449842    -0.00800
C2015       C  0.34798775  0.06019136  0.35085542    -0.01900
C2016       C  0.32569699  0.04218137  0.35038876     0.07800
C2017       C  0.30804964  0.04583334  0.35339731    -0.02000
C2018       C  0.31275201  0.06717507  0.35743234    -0.02000
C2019       C  0.33512350  0.08482450  0.35863504     0.07900
C2020       C  0.35270043  0.08138304  0.35508410    -0.02200
Br2021     Br  0.38332410  0.10588882  0.35564793    -0.00800
Br2022     Br  0.37211682  0.05612673  0.34519053    -0.00800
Br2023     Br  0.28855639  0.07186111  0.36195796    -0.00800
Br2024     Br  0.27748536  0.02132394  0.35270353    -0.00800
C2025       C  0.40027539  0.93836208  0.36921314    -0.01900
C2026       C  0.37916287  0.92198222  0.36428426     0.07800
C2027       C  0.37152138  0.89904879  0.36629188    -0.02000
C2028       C  0.38475229  0.89267696  0.37317924    -0.02000
C2029       C  0.40514113  0.90904711  0.37869581     0.07900
C2030       C  0.41304073  0.93188449  0.37655882    -0.02200
Br2031     Br  0.44126235  0.95423030  0.38386420    -0.00800
Br2032     Br  0.41238561  0.96971197  0.36556453    -0.00800
Br2033     Br  0.37499284  0.86133401  0.37507038    -0.00800
Br2034     Br  0.34217797  0.87601080  0.36063491    -0.00800
C2035       C  0.22093280  0.32464034  0.28134913    -0.01900
C2036       C  0.24329630  0.34257027  0.28116889     0.07800
C2037       C  0.25054309  0.35830351  0.27107403    -0.02000
C2038       C  0.23540257  0.35678509  0.26156039    -0.02000
C2039       C  0.21270617  0.33906978  0.26182295     0.07900
C2040       C  0.20588308  0.32248501  0.27156608    -0.02200
Br2041     Br  0.17596812  0.29657567  0.27200365    -0.00800
Br2042     Br  0.21025044  0.30370723  0.29554300    -0.00800
Br2043     Br  0.24689810  0.37868696  0.24781557    -0.00800
Br2044     Br  0.28173058  0.38149305  0.26978123    -0.00800
C2045       C  0.30761493  0.25350523  0.34866972    -0.01900
C2046       C  0.32398623  0.27458467  0.34386999     0.07800
C2047       C  0.34651085  0.28020116  0.34323470    -0.02000
C2048       C  0.35280590  0.26524012  0.34791668    -0.02000
C2049       C  0.33660999  0.24455557  0.35324137     0.07900
C2050       C  0.31390254  0.23847474  0.35332587    -0.02200
Br2051     Br  0.29155106  0.21015197  0.36053252    -0.00800
Br2052     Br  0.27678571  0.24579542  0.34959672    -0.00800
Br2053     Br  0.38361963  0.27291404  0.34678179    -0.00800
Br2054     Br  0.36876062  0.30833016  0.33575615    -0.00800
C2055       C  0.40153541  0.47103804  0.36815031    -0.01900
C2056       C  0.39347853  0.48547638  0.37097410     0.07800
C2057       C  0.37319620  0.48132589  0.36540750    -0.02000
C2058       C  0.36018040  0.46192508  0.35794352    -0.02000
C2059       C  0.36796549  0.44706898  0.35537879     0.07900
C2060       C  0.38925102  0.45240360  0.36003811    -0.02200
Br2061     Br  0.40242912  0.43500943  0.35482781    -0.00800
Br2062     Br  0.42892793  0.47613049  0.37594154    -0.00800
Br2063     Br  0.33103783  0.45527526  0.35215870    -0.00800
Br2064     Br  0.36316187  0.50227827  0.36810486    -0.00800
C2065       C  0.65107714  0.87654952  0.29168833    -0.01900
C2066       C  0.63656799  0.88500568  0.29088634     0.07800
C2067       C  0.62177469  0.87900506  0.28038689    -0.02000
C2068       C  0.62144765  0.86456453  0.27072435    -0.02000
C2069       C  0.63589293  0.85587440  0.27152201     0.07900
C2070       C  0.65080255  0.86211481  0.28206674    -0.02200
Br2071     Br  0.67039895  0.85034313  0.28385152    -0.00800
Br2072     Br  0.67076401  0.88404818  0.30633531    -0.00800
Br2073     Br  0.60214814  0.85806773  0.25599460    -0.00800
Br2074     Br  0.60265347  0.89147455  0.27893606    -0.00800
C2075       C  0.74008872  0.04615910  0.35233576    -0.01900
C2076       C  0.72178047  0.04502310  0.34573858     0.07800
C2077       C  0.72170988  0.06492838  0.34318517    -0.02000
C2078       C  0.73898045  0.08554381  0.34791325    -0.02000
C2079       C  0.75672224  0.08652024  0.35494398     0.07900
C2080       C  0.75753526  0.06691909  0.35691823    -0.02200
Br2081     Br  0.78213586  0.06851930  0.36640222    -0.00800
Br2082     Br  0.74078974  0.01927787  0.35580688    -0.00800
Br2083     Br  0.73814845  0.11252051  0.34500526    -0.00800
Br2084     Br  0.69835408  0.06420598  0.33280272    -0.00800
C2085       C  0.52506382  0.92591830  0.38078871    -0.01900
C2086       C  0.50517463  0.90697173  0.37652612     0.07800
C2087       C  0.50504111  0.89655258  0.36489165    -0.02000
C2088       C  0.52453356  0.90544047  0.35735217    -0.02000
C2089       C  0.54509872  0.92312561  0.36215800     0.07900
C2090       C  0.54519052  0.93333248  0.37400784    -0.02200
Br2091     Br  0.57270083  0.95596587  0.38189747    -0.00800
Br2092     Br  0.52471830  0.94105600  0.39631396    -0.00800
Br2093     Br  0.52217226  0.89411864  0.34008413    -0.00800
Br2094     Br  0.47832100  0.86944259  0.35955294    -0.00800
C2095       C  0.11563912  0.34057834  0.28422637    -0.01900
C2096       C  0.10205620  0.34916292  0.28041335     0.07800
C2097       C  0.10176180  0.35476401  0.26742166    -0.02000
C2098       C  0.11517206  0.35201107  0.25829582    -0.02000
C2099       C  0.12887392  0.34351516  0.26211112     0.07900
C2100       C  0.12904287  0.33780492  0.27510535    -0.02200
Br2101     Br  0.14868750  0.32752658  0.28057086    -0.00800
Br2102     Br  0.11638553  0.33330509  0.30206118    -0.00800
Br2103     Br  0.11455643  0.35965022  0.24051069    -0.00800
Br2104     Br  0.08282533  0.36608837  0.26215503    -0.00800
C2105       C  0.91618411  0.27042119  0.34952513    -0.01900
C2106       C  0.91465720  0.25190853  0.35602029     0.07800
C2107       C  0.93382374  0.25008732  0.35730524    -0.02000
C2108       C  0.95454838  0.26696982  0.35237476    -0.02000
C2109       C  0.95612463  0.28559435  0.34597134     0.07900
C2110       C  0.93686252  0.28723704  0.34451964    -0.02200
Br2111     Br  0.93873533  0.31240874  0.33552408    -0.00800
Br2112     Br  0.88980326  0.27254564  0.34736566    -0.00800
Br2113     Br  0.98107084  0.26528687  0.35509197    -0.00800
Br2114     Br  0.93176914  0.22473996  0.36616186    -0.00800
C2115       C  0.08759563  0.49487896  0.35390702    -0.01900
C2116       C  0.10111832  0.50042762  0.36505863     0.07800
C2117       C  0.11457627  0.49047748  0.36584514    -0.02000
C2118       C  0.10809829  0.47031525  0.35924984    -0.02000
C2119       C  0.08924301  0.46102541  0.35116482     0.07900
C2120       C  0.07949517  0.47384453  0.34811149    -0.02200
Br2121     Br  0.05605225  0.46347083  0.33544864    -0.00800
Br2122     Br  0.09063748  0.51832319  0.34260871    -0.00800
Br2123     Br  0.12454553  0.45514748  0.36157015    -0.00800
Br2124     Br  0.14350327  0.50591768  0.37416676    -0.00800
C2125       C  0.21354483  0.78991174  0.95684984    -0.01900
C2126       C  0.19763122  0.78296775  0.96689093     0.07800
C2127       C  0.17698132  0.78163592  0.96459759    -0.02000
C2128       C  0.17220743  0.78700098  0.95239499    -0.02000
C2129       C  0.18795251  0.79360237  0.94232118     0.07900
C2130       C  0.20869457  0.79515454  0.94461894    -0.02200
Br2131     Br  0.23007411  0.80315581  0.93080683    -0.00800
Br2132     Br  0.24155513  0.79097921  0.95946156    -0.00800
Br2133     Br  0.14442056  0.78636202  0.94972720    -0.00800
Br2134     Br  0.15544472  0.77344335  0.97832864    -0.00800
C2135       C  0.25127655  0.94485953  0.85367088    -0.01900
C2136       C  0.27083539  0.94608087  0.84883721     0.07800
C2137       C  0.27251381  0.92669428  0.84865913    -0.02000
C2138       C  0.25512399  0.90646375  0.85373715    -0.02000
C2139       C  0.23588243  0.90544562  0.85882553     0.07900
C2140       C  0.23368506  0.92445648  0.85846960    -0.02200
Br2141     Br  0.20667401  0.92252691  0.86478572    -0.00800
Br2142     Br  0.24916313  0.97142589  0.85462928    -0.00800
Br2143     Br  0.25753636  0.88001811  0.85374192    -0.00800
Br2144     Br  0.29837860  0.92762073  0.84120355    -0.00800
C2145       C  0.06116028  0.71600790  0.83904620    -0.01900
C2146       C  0.03994563  0.71121918  0.84334341     0.07800
C2147       C  0.03825351  0.72279509  0.85403678    -0.02000
C2148       C  0.05764398  0.73834158  0.86073560    -0.02000
C2149       C  0.07884244  0.74304064  0.85646199     0.07900
C2150       C  0.08059556  0.73217473  0.84545042    -0.02200
Br2151     Br  0.10959337  0.73884955  0.83936741    -0.00800
Br2152     Br  0.06360851  0.70063190  0.82423401    -0.00800
Br2153     Br  0.05516214  0.75342688  0.87569020    -0.00800
Br2154     Br  0.00938193  0.71698332  0.85980550    -0.00800
C2155       C  0.43304566  0.20861630  0.02426483    -0.01900
C2156       C  0.45285272  0.22964018  0.02285153     0.07800
C2157       C  0.46135974  0.24428055  0.03348411    -0.02000
C2158       C  0.45039886  0.23780417  0.04548326    -0.02000
C2159       C  0.43084162  0.21664572  0.04695384     0.07900
C2160       C  0.42216599  0.20211062  0.03629705    -0.02200
Br2161     Br  0.39489735  0.17355430  0.03808862    -0.00800
Br2162     Br  0.42000795  0.18915975  0.00956699    -0.00800
Br2163     Br  0.46279011  0.25762246  0.06007651    -0.00800
Br2164     Br  0.48861139  0.27291356  0.03179737    -0.00800
C2165       C  0.52377807  0.35156701  0.91543244    -0.01900
C2166       C  0.51581721  0.36617208  0.91799524     0.07800
C2167       C  0.49843473  0.35998337  0.92698374    -0.02000
C2168       C  0.48909210  0.33930091  0.93338351    -0.02000
C2169       C  0.49823758  0.32547066  0.93158607     0.07900
C2170       C  0.51577056  0.33177615  0.92261474    -0.02200
Br2171     Br  0.53037723  0.31463128  0.92078548    -0.00800
Br2172     Br  0.54581934  0.35885159  0.90210353    -0.00800
Br2173     Br  0.46300110  0.32946942  0.94408432    -0.00800
Br2174     Br  0.48751288  0.37996242  0.93056576    -0.00800
C2175       C  0.65382130  0.48442134  0.92447425    -0.01900
C2176       C  0.65414348  0.48665822  0.93800786     0.07800
C2177       C  0.63424681  0.48145899  0.94454516    -0.02000
C2178       C  0.61427312  0.47415752  0.93760662    -0.02000
C2179       C  0.61383893  0.47110176  0.92417420     0.07900
C2180       C  0.63364842  0.47611296  0.91765211    -0.02200
Br2181     Br  0.63291999  0.47059736  0.89937179    -0.00800
Br2182     Br  0.68108432  0.49338766  0.91506199    -0.00800
Br2183     Br  0.58730911  0.46783606  0.94649363    -0.00800
Br2184     Br  0.63376373  0.48256026  0.96308790    -0.00800
C2185       C  0.77999533  0.57449505  0.02203425    -0.01900
C2186       C  0.78821618  0.58505431  0.01004529     0.07800
C2187       C  0.80365130  0.60828229  0.00961257    -0.02000
C2188       C  0.81041761  0.62094891  0.02107997    -0.02000
C2189       C  0.80217937  0.61036908  0.03305960     0.07900
C2190       C  0.78708057  0.58707818  0.03350700    -0.02200
Br2191     Br  0.77648686  0.57232154  0.04989271    -0.00800
Br2192     Br  0.75924024  0.54265067  0.02274089    -0.00800
Br2193     Br  0.83018452  0.65297324  0.02037544    -0.00800
Br2194     Br  0.81513988  0.62279837  0.99327022    -0.00800
C2195       C  0.88845490  0.49872088  0.85665391    -0.01900
C2196       C  0.89767417  0.49914862  0.86879392     0.07800
C2197       C  0.91656493  0.51901898  0.87316721    -0.02000
C2198       C  0.92518578  0.53883807  0.86590652    -0.02000
C2199       C  0.91534037  0.53868683  0.85395886     0.07900
C2200       C  0.89758667  0.51827963  0.84913308    -0.02200
Br2201     Br  0.88639538  0.51670164  0.83192343    -0.00800
Br2202     Br  0.86294174  0.47138891  0.85045141    -0.00800
Br2203     Br  0.94952849  0.56619369  0.87296469    -0.00800
Br2204     Br  0.93024945  0.51905202  0.88933998    -0.00800
C2205       C  0.80782269  0.46300339  0.91547186    -0.01900
C2206       C  0.82448761  0.46033100  0.92143558     0.07800
C2207       C  0.82920223  0.46548910  0.93460047    -0.02000
C2208       C  0.81739974  0.47333047  0.94177725    -0.02000
C2209       C  0.80111472  0.47666336  0.93575973     0.07900
C2210       C  0.79646639  0.47151551  0.92251244    -0.02200
Br2211     Br  0.77565749  0.47736155  0.91356993    -0.00800
Br2212     Br  0.80047186  0.45480090  0.89761252    -0.00800
Br2213     Br  0.82301357  0.47836809  0.96002112    -0.00800
Br2214     Br  0.85229592  0.46223231  0.94277158    -0.00800
C2215       C  0.59727928  0.81042870  0.94936820    -0.01900
C2216       C  0.61923393  0.81466198  0.95095680     0.07800
C2217       C  0.62658981  0.81268686  0.96323603    -0.02000
C2218       C  0.61203846  0.80643492  0.97388925    -0.02000
C2219       C  0.59015141  0.80252110  0.97235788     0.07900
C2220       C  0.58286556  0.80464373  0.96004883    -0.02200
Br2221     Br  0.55278537  0.79861222  0.95760793    -0.00800
Br2222     Br  0.58657928  0.81150731  0.93239761    -0.00800
Br2223     Br  0.62242546  0.80397959  0.99067977    -0.00800
Br2224     Br  0.65683959  0.81915433  0.96549101    -0.00800
C2225       C  0.66031733  0.73041147  0.85432505    -0.01900
C2226       C  0.68102264  0.73127451  0.85359782     0.07800
C2227       C  0.70053259  0.75033866  0.85827224    -0.02000
C2228       C  0.69913509  0.76789848  0.86412173    -0.02000
C2229       C  0.67825862  0.76638182  0.86546851     0.07900
C2230       C  0.65892668  0.74779455  0.86037105    -0.02200
Br2231     Br  0.63045002  0.74609219  0.86182827    -0.00800
Br2232     Br  0.63386504  0.70576789  0.84667336    -0.00800
Br2233     Br  0.72569191  0.79376002  0.87072934    -0.00800
Br2234     Br  0.72898809  0.75187976  0.85747463    -0.00800
C2235       C  0.58840646  0.54425789  0.86319875    -0.01900
C2236       C  0.60918672  0.54986042  0.85761556     0.07800
C2237       C  0.61729943  0.53501478  0.85899732    -0.02000
C2238       C  0.60454279  0.51467856  0.86561572    -0.02000
C2239       C  0.58438448  0.50967594  0.87166579     0.07900
C2240       C  0.57642697  0.52457091  0.87054166    -0.02200
Br2241     Br  0.54942004  0.51819727  0.87941074    -0.00800
Br2242     Br  0.57563511  0.56285268  0.86037233    -0.00800
Br2243     Br  0.61473648  0.49356528  0.86650907    -0.00800
Br2244     Br  0.64670810  0.54298970  0.85291232    -0.00800
C2245       C  0.66513119  0.94580467  0.85797143    -0.01900
C2246       C  0.68492614  0.96677157  0.85959676     0.07800
C2247       C  0.70283512  0.96812120  0.86669279    -0.02000
C2248       C  0.70122728  0.94858928  0.87181778    -0.02000
C2249       C  0.68154990  0.92765863  0.87009544     0.07900
C2250       C  0.66347872  0.92631475  0.86320294    -0.02200
Br2251     Br  0.63620761  0.89778543  0.86125047    -0.00800
Br2252     Br  0.64023887  0.94363043  0.84850692    -0.00800
Br2253     Br  0.72607991  0.95041731  0.88111971    -0.00800
Br2254     Br  0.72896588  0.99692898  0.87016426    -0.00800
C2255       C  0.81890146  0.35032702  0.94727677    -0.01900
C2256       C  0.82482881  0.33412937  0.94468872     0.07800
C2257       C  0.84501525  0.34092218  0.93806654    -0.02000
C2258       C  0.85637860  0.36218393  0.93220273    -0.02000
C2259       C  0.84556756  0.37468078  0.93102652     0.07900
C2260       C  0.83058129  0.37136906  0.94118124    -0.02200
Br2261     Br  0.83241246  0.39676576  0.94995492    -0.00800
Br2262     Br  0.79606444  0.34437154  0.95979469    -0.00800
Br2263     Br  0.88796937  0.37598132  0.92859312    -0.00800
Br2264     Br  0.85661881  0.32116959  0.93629740    -0.00800
C2265       C  0.78811706  0.20382307  0.02191743    -0.01900
C2266       C  0.78778940  0.19353888  0.01013841     0.07800
C2267       C  0.79132709  0.17528835  0.01006233    -0.02000
C2268       C  0.79546017  0.16757577  0.02167061    -0.02000
C2269       C  0.79656309  0.17837710  0.03336213     0.07900
C2270       C  0.79291516  0.19653659  0.03345655    -0.02200
Br2271     Br  0.79411188  0.21124953  0.04945486    -0.00800
Br2272     Br  0.78080369  0.22712060  0.02241398    -0.00800
Br2273     Br  0.80076948  0.14292240  0.02147510    -0.00800
Br2274     Br  0.79177052  0.16159798  0.99399042    -0.00800
C2275       C  0.46325739  0.09650985  0.85821984    -0.01900
C2276       C  0.44892954  0.07335843  0.85581073     0.07800
C2277       C  0.45518893  0.05813904  0.86035385    -0.02000
C2278       C  0.47439286  0.06572882  0.86808696    -0.02000
C2279       C  0.48845688  0.08877719  0.87059220     0.07900
C2280       C  0.48333659  0.10417101  0.86510823    -0.02200
Br2281     Br  0.50406287  0.13591685  0.86698881    -0.00800
Br2282     Br  0.45490613  0.11795893  0.85317529    -0.00800
Br2283     Br  0.48104690  0.04440502  0.87560884    -0.00800
Br2284     Br  0.43829572  0.02695160  0.85548178    -0.00800
C2285       C  0.53197770  0.17800818  0.91876523    -0.01900
C2286       C  0.52715118  0.15734832  0.92399824     0.07800
C2287       C  0.51537747  0.14987324  0.93565971    -0.02000
C2288       C  0.50806294  0.16284189  0.94203896    -0.02000
C2289       C  0.51307493  0.18380717  0.93692816     0.07900
C2290       C  0.52535911  0.19142480  0.92529434    -0.02200
Br2291     Br  0.53467563  0.22080053  0.91854067    -0.00800
Br2292     Br  0.54792176  0.18788283  0.90262512    -0.00800
Br2293     Br  0.49007080  0.15080633  0.95736551    -0.00800
Br2294     Br  0.50906410  0.12155936  0.94273429    -0.00800
C2295       C  0.60721944  0.10244296  0.86310491    -0.01900
C2296       C  0.58800435  0.08670448  0.86984774     0.07800
C2297       C  0.58022189  0.06373533  0.86866733    -0.02000
C2298       C  0.59180319  0.05647034  0.86085465    -0.02000
C2299       C  0.61210653  0.07227906  0.85483416     0.10300
C2300       C  0.61965182  0.09539096  0.85592257    -0.02200
Br2301     Br  0.64807429  0.11793404  0.84888894    -0.00800
Br2302     Br  0.61686891  0.13384911  0.86418334    -0.00800
Br2303     Br  0.57932170  0.02476118  0.85825901    -0.00800
Br2304     Br  0.55437592  0.04241044  0.87840479    -0.00800
C2305       C  0.64316332  0.16583291  0.91771429    -0.01900
C2306       C  0.62405189  0.15000951  0.92454660     0.07800
C2307       C  0.62604366  0.14565969  0.93756247    -0.02000
C2308       C  0.64691128  0.15764850  0.94386613    -0.02000
C2309       C  0.66607772  0.17386808  0.93707468     0.07900
C2310       C  0.66412991  0.17731505  0.92383875    -0.02200
Br2311     Br  0.69030971  0.19653706  0.91364808    -0.00800
Br2312     Br  0.64049238  0.17215624  0.89991831    -0.00800
Br2313     Br  0.64863611  0.15225027  0.96192806    -0.00800
Br2314     Br  0.60001603  0.12318614  0.94668527    -0.00800
C2315       C  0.18859740  0.38295598  0.95900219    -0.01900
C2316       C  0.19346243  0.39354273  0.94689430     0.07800
C2317       C  0.20270896  0.41689334  0.94615268    -0.02000
C2318       C  0.20804785  0.42973761  0.95747734    -0.02000
C2319       C  0.20385129  0.41925015  0.96958851     0.07900
C2320       C  0.19378786  0.39580219  0.97034463    -0.02200
Br2321     Br  0.18753435  0.38138867  0.98693134    -0.00800
Br2322     Br  0.17500631  0.35089202  0.96001077    -0.00800
Br2323     Br  0.22054691  0.46167257  0.95642337    -0.00800
Br2324     Br  0.20704659  0.43114668  0.92960909    -0.00800
C2325       C  0.04472797  0.32788145  0.86972162    -0.01900
C2326       C  0.03967269  0.32238093  0.85656351     0.07800
C2327       C  0.05539665  0.32074518  0.84873470    -0.02000
C2328       C  0.07518452  0.32336630  0.85414266    -0.02000
C2329       C  0.08124566  0.33104635  0.86696863     0.07900
C2330       C  0.06592479  0.33378816  0.87461826    -0.02200
Br2331     Br  0.07397931  0.34760475  0.89144786    -0.00800
Br2332     Br  0.02235889  0.32617775  0.88151571    -0.00800
Br2333     Br  0.09274192  0.31460094  0.84399117    -0.00800
Br2334     Br  0.05132839  0.31705326  0.83032245    -0.00800
C2335       C  0.89508401  0.36964680  0.85579457    -0.01900
C2336       C  0.91838660  0.37787757  0.85649552     0.07800
C2337       C  0.93201003  0.39714528  0.86406723    -0.02000
C2338       C  0.92226871  0.40698693  0.87140754    -0.02000
C2339       C  0.89922580  0.39907490  0.87036145     0.07900
C2340       C  0.88587021  0.38097224  0.86214547    -0.02200
Br2341     Br  0.85463016  0.37127584  0.85999121    -0.00800
Br2342     Br  0.87484324  0.34151552  0.84751334    -0.00800
Br2343     Br  0.94040347  0.43110126  0.88318787    -0.00800
Br2344     Br  0.96420255  0.41114504  0.86410200    -0.00800
C2345       C  0.27523613  0.36283944  0.83922339    -0.01900
C2346       C  0.27546627  0.34292018  0.84144501     0.07800
C2347       C  0.26029480  0.32710470  0.85037529    -0.02000
C2348       C  0.24548753  0.33150305  0.85724590    -0.02000
C2349       C  0.24584319  0.35174977  0.85531149     0.07900
C2350       C  0.26051416  0.36724996  0.84615913    -0.02200
Br2351     Br  0.26129778  0.39513510  0.84362400    -0.00800
Br2352     Br  0.29492629  0.38410296  0.82653713    -0.00800
Br2353     Br  0.22457605  0.30968559  0.86930608    -0.00800
Br2354     Br  0.26067715  0.30007022  0.85397096    -0.00800
C2355       C  0.44563633  0.39399905  0.86171743    -0.01900
C2356       C  0.44624857  0.38565802  0.84936660     0.07800
C2357       C  0.46658439  0.38800822  0.84490022    -0.02000
C2358       C  0.48554771  0.39733602  0.85293999    -0.02000
C2359       C  0.48496610  0.40613757  0.86504637     0.07900
C2360       C  0.46515427  0.40496187  0.86924862    -0.02200
Br2361     Br  0.46469311  0.41782967  0.88565953    -0.00800
Br2362     Br  0.41791558  0.38871196  0.86920041    -0.00800
Br2363     Br  0.51218643  0.39747318  0.84757062    -0.00800
Br2364     Br  0.46913851  0.37952733  0.82756496    -0.00800
C2365       C  0.32524613  0.11877851  0.78032758    -0.01900
C2366       C  0.33840121  0.12588213  0.76903316     0.07800
C2367       C  0.35268074  0.11748810  0.76629857    -0.02000
C2368       C  0.35384759  0.10230200  0.77476652    -0.02000
C2369       C  0.34147221  0.09597491  0.78632192     0.07900
C2370       C  0.32696596  0.10409321  0.78900634    -0.02200
Br2371     Br  0.31033365  0.09620324  0.80492969    -0.00800
Br2372     Br  0.30584131  0.13019230  0.78438241    -0.00800
Br2373     Br  0.37149082  0.08911768  0.77010406    -0.00800
Br2374     Br  0.37038943  0.12618016  0.75072904    -0.00800
C2375       C  0.34194166  0.21204002  0.78361141    -0.01900
C2376       C  0.33305636  0.21017632  0.77120125     0.07800
C2377       C  0.32391127  0.22348926  0.76781549    -0.02000
C2378       C  0.32529201  0.23984835  0.77641658    -0.02000
C2379       C  0.33426694  0.24183538  0.78889099     0.07900
C2380       C  0.34196780  0.22732116  0.79254804    -0.02200
Br2381     Br  0.35179372  0.22752283  0.80994892    -0.00800
Br2382     Br  0.35359149  0.19314905  0.78845158    -0.00800
Br2383     Br  0.31698114  0.26088297  0.77040686    -0.00800
Br2384     Br  0.31023586  0.21999600  0.75114613    -0.00800
C2385       C  0.75161569  0.10104155  0.77730906    -0.01900
C2386       C  0.75069156  0.10939549  0.78952224     0.07800
C2387       C  0.76425865  0.13253113  0.79201011    -0.02000
C2388       C  0.77829775  0.14725554  0.78230726    -0.02000
C2389       C  0.77945554  0.13888730  0.77011646     0.07900
C2390       C  0.76600734  0.11567275  0.76767826    -0.02200
Br2391     Br  0.76608308  0.10400317  0.75082423    -0.00800
Br2392     Br  0.73227281  0.06964231  0.77355332    -0.00800
Br2393     Br  0.79613672  0.17889526  0.78586521    -0.00800
Br2394     Br  0.76421679  0.14396301  0.80893341    -0.00800
C2395       C  0.86870504  0.21465299  0.77941941    -0.01900
C2396       C  0.86682205  0.22332879  0.76751778     0.07800
C2397       C  0.88138854  0.24620265  0.76478711    -0.02000
C2398       C  0.89692231  0.26048447  0.77407545    -0.02000
C2399       C  0.89771867  0.25212327  0.78631348     0.07900
C2400       C  0.88385304  0.22901684  0.78884903    -0.02200
Br2401     Br  0.88461083  0.21698808  0.80544627    -0.00800
Br2402     Br  0.85016966  0.18306511  0.78297590    -0.00800
Br2403     Br  0.91810164  0.29127617  0.76971239    -0.00800
Br2404     Br  0.88112120  0.25776669  0.74802277    -0.00800
C2405       C  0.75453266  0.65363142  0.76472808    -0.01900
C2406       C  0.76884330  0.64568148  0.76817297     0.07800
C2407       C  0.76787248  0.63751063  0.78070648    -0.02000
C2408       C  0.75336454  0.63815156  0.78991772    -0.02000
C2409       C  0.73883136  0.64581568  0.78646181     0.07900
C2410       C  0.73922707  0.65325468  0.77378738    -0.02200
Br2411     Br  0.71799808  0.66181775  0.76868291    -0.00800
Br2412     Br  0.75523857  0.66413089  0.74745313    -0.00800
Br2413     Br  0.75418988  0.62948603  0.80744641    -0.00800
Br2414     Br  0.78667325  0.62564607  0.78531392    -0.00800
C2415       C  0.85765131  0.65919957  0.78241174    -0.01900
C2416       C  0.85212076  0.64449832  0.77180729     0.07800
C2417       C  0.86028696  0.62961212  0.77139319    -0.02000
C2418       C  0.87314492  0.62888552  0.78163006    -0.02000
C2419       C  0.87833624  0.64329229  0.79228390     0.07900
C2420       C  0.87090879  0.65872265  0.79253375    -0.02200
Br2421     Br  0.87852972  0.67891403  0.80693262    -0.00800
Br2422     Br  0.84637626  0.67940887  0.78350004    -0.00800
Br2423     Br  0.88475155  0.60894357  0.78064768    -0.00800
Br2424     Br  0.85534302  0.61119401  0.75638643    -0.00800
C2425       C  0.59900441  0.78781363  0.53578414    -0.01900
C2426       C  0.58854745  0.79201059  0.54614245     0.07800
C2427       C  0.56722795  0.78935343  0.54442262    -0.02000
C2428       C  0.55671151  0.78320678  0.53229890    -0.02000
C2429       C  0.56741908  0.77954378  0.52184499     0.07900
C2430       C  0.58853182  0.78173554  0.52365358    -0.02200
Br2431     Br  0.60367384  0.77750672  0.50933520    -0.00800
Br2432     Br  0.62802840  0.79102147  0.53807857    -0.00800
Br2433     Br  0.52721644  0.77892755  0.53019245    -0.00800
Br2434     Br  0.55188977  0.79291710  0.55888374    -0.00800
C2435       C  0.76116546  0.65984965  0.69562817    -0.01900
C2436       C  0.73833217  0.64344260  0.69685366     0.07800
C2437       C  0.73137696  0.62748359  0.70678462    -0.02000
C2438       C  0.74711330  0.62771520  0.71538683    -0.02000
C2439       C  0.77022988  0.64362179  0.71392985     0.07900
C2440       C  0.77712498  0.65974903  0.70396703    -0.02200
Br2441     Br  0.80844326  0.68122059  0.70116483    -0.00800
Br2442     Br  0.77066056  0.68224857  0.68229461    -0.00800
Br2443     Br  0.73618926  0.60706884  0.72973697    -0.00800
Br2444     Br  0.69990874  0.60602684  0.70914857    -0.00800
C2445       C  0.64151135  0.72763937  0.65011936    -0.01900
C2446       C  0.65546089  0.72017460  0.64527955     0.07800
C2447       C  0.66876162  0.73041726  0.63433239    -0.02000
C2448       C  0.66777456  0.74783058  0.62807815    -0.02000
C2449       C  0.65333395  0.75493065  0.63269525     0.07900
C2450       C  0.64046152  0.74503190  0.64386401    -0.02200
Br2451     Br  0.62025129  0.75417428  0.65014101    -0.00800
Br2452     Br  0.62328261  0.71339482  0.66508778    -0.00800
Br2453     Br  0.68637590  0.76207982  0.61322625    -0.00800
Br2454     Br  0.68756145  0.71985599  0.62757304    -0.00800
C2455       C  0.77980644  0.12974709  0.70363206    -0.01900
C2456       C  0.77302886  0.13657207  0.71473853     0.07800
C2457       C  0.74990987  0.12772525  0.71691582    -0.02000
C2458       C  0.73399531  0.11302159  0.70788806    -0.02000
C2459       C  0.74093055  0.10660716  0.69676292     0.07900
C2460       C  0.76384050  0.11484661  0.69472965    -0.02200
Br2461     Br  0.77347361  0.10647889  0.67935695    -0.00800
Br2462     Br  0.81098462  0.14128787  0.70006758    -0.00800
Br2463     Br  0.70250910  0.10095501  0.71098202    -0.00800
Br2464     Br  0.73964907  0.13428388  0.73268241    -0.00800
C2465       C  0.67101700  0.93589738  0.62256595    -0.01900
C2466       C  0.65481149  0.91368890  0.62580071     0.07800
C2467       C  0.63927507  0.90962508  0.63569451    -0.02000
C2468       C  0.64020518  0.92764669  0.64246083    -0.02000
C2469       C  0.65635415  0.94984619  0.63920494     0.07900
C2470       C  0.67176644  0.95393314  0.62923697    -0.02200
Br2471     Br  0.69354461  0.98429144  0.62446911    -0.00800
Br2472     Br  0.69242027  0.94161764  0.60911927    -0.00800
Br2473     Br  0.61971735  0.92192457  0.65644822    -0.00800
Br2474     Br  0.61592845  0.87937368  0.63955668    -0.00800
C2475       C  0.82799527  0.34778269  0.53081009    -0.01900
C2476       C  0.80641103  0.33058916  0.53473149     0.07800
C2477       C  0.79793220  0.33264455  0.54675269    -0.02000
C2478       C  0.80974051  0.35245672  0.55395760    -0.02000
C2479       C  0.83126711  0.36924616  0.55010587     0.07900
C2480       C  0.84077520  0.36639532  0.53885015    -0.02200
Br2481     Br  0.87134474  0.38820367  0.53449410    -0.00800
Br2482     Br  0.83982986  0.34734425  0.51407478    -0.00800
Br2483     Br  0.79631291  0.35681682  0.56913060    -0.00800
Br2484     Br  0.77128993  0.30795177  0.55427686    -0.00800
C2485       C  0.77927774  0.18943251  0.45737188    -0.01900
C2486       C  0.77472091  0.20691450  0.45849009     0.07800
C2487       C  0.77671884  0.21990764  0.44759041    -0.02000
C2488       C  0.78408015  0.21600682  0.43577335    -0.02000
C2489       C  0.78965984  0.19922967  0.43481960     0.07900
C2490       C  0.78673653  0.18559589  0.44556779    -0.02200
Br2491     Br  0.79362712  0.16207399  0.44427242    -0.00800
Br2492     Br  0.77613207  0.17126252  0.47215229    -0.00800
Br2493     Br  0.78534652  0.23280674  0.42069267    -0.00800
Br2494     Br  0.76847504  0.24246334  0.44870014    -0.00800
C2495       C  0.79762189  0.46445426  0.54003243    -0.01900
C2496       C  0.80988269  0.48746966  0.53682092     0.07800
C2497       C  0.83265215  0.50037997  0.54044705    -0.02000
C2498       C  0.84286066  0.49033963  0.54715447    -0.02000
C2499       C  0.83001022  0.46791690  0.55134096     0.07900
C2500       C  0.80726942  0.45506422  0.54780953    -0.02200
Br2501     Br  0.78887039  0.42480575  0.55409115    -0.00800
Br2502     Br  0.76794083  0.44513507  0.53319647    -0.00800
Br2503     Br  0.87464402  0.50732173  0.55049278    -0.00800
Br2504     Br  0.84978991  0.53220610  0.53729561    -0.00800
C2505       C  0.79546499  0.59464524  0.45712268    -0.01900
C2506       C  0.79718866  0.60462392  0.46923703     0.07800
C2507       C  0.80625568  0.62798253  0.47003605    -0.02000
C2508       C  0.81315401  0.64117074  0.45878042    -0.02000
C2509       C  0.81133413  0.63113691  0.44672082     0.07900
C2510       C  0.80285569  0.60792209  0.44594522    -0.02200
Br2511     Br  0.80176275  0.59434421  0.42953140    -0.00800
Br2512     Br  0.78172864  0.56257798  0.45562621    -0.00800
Br2513     Br  0.82475896  0.67294666  0.45978978    -0.00800
Br2514     Br  0.80990518  0.64207093  0.48657015    -0.00800
C2515       C  0.58433776  0.53137280  0.60718289    -0.01900
C2516       C  0.57922499  0.51008981  0.61158639     0.07800
C2517       C  0.58349261  0.50735273  0.62451611    -0.02000
C2518       C  0.59337706  0.52588687  0.63287419    -0.02000
C2519       C  0.60042808  0.54756107  0.62817038     0.07900
C2520       C  0.59560632  0.55018432  0.61528094    -0.02200
Br2521     Br  0.60628999  0.57956333  0.60810056    -0.00800
Br2522     Br  0.57671648  0.53479309  0.58980188    -0.00800
Br2523     Br  0.59668102  0.52129162  0.65086652    -0.00800
Br2524     Br  0.57725786  0.47847169  0.63060437    -0.00800
C2525       C  0.63097873  0.50172485  0.54712000    -0.01900
C2526       C  0.62812401  0.48951759  0.55850438     0.07800
C2527       C  0.64655111  0.48916697  0.56380898    -0.02000
C2528       C  0.66763174  0.50104066  0.55786131    -0.02000
C2529       C  0.66995724  0.51092395  0.54560807     0.07900
C2530       C  0.65148985  0.51155207  0.54036726    -0.02200
Br2531     Br  0.65325977  0.52436375  0.52364424    -0.00800
Br2532     Br  0.60656622  0.50466068  0.54075477    -0.00800
Br2533     Br  0.69349157  0.50515985  0.56721109    -0.00800
Br2534     Br  0.64278611  0.47185310  0.57913176    -0.00800
C2535       C  0.54296178  0.35326770  0.54624831    -0.01900
C2536       C  0.52293552  0.34371402  0.53894815     0.07800
C2537       C  0.50939613  0.35345906  0.53957207    -0.02000
C2538       C  0.51614153  0.37275823  0.54710043    -0.02000
C2539       C  0.53568856  0.38165980  0.55462508     0.07900
C2540       C  0.54874200  0.37155139  0.55442054    -0.02200
Br2541     Br  0.57400445  0.38220198  0.56591214    -0.00800
Br2542     Br  0.56348970  0.34242195  0.54478181    -0.00800
Br2543     Br  0.49839809  0.38686251  0.54738607    -0.00800
Br2544     Br  0.48065127  0.33958925  0.53114194    -0.00800
C2545       C  0.41676333  0.21717098  0.45687994    -0.01900
C2546       C  0.43889627  0.22190609  0.45822686     0.07800
C2547       C  0.45021113  0.21986702  0.44754819    -0.02000
C2548       C  0.43993301  0.21452550  0.43535940    -0.02000
C2549       C  0.41801514  0.21046360  0.43392119     0.07900
C2550       C  0.40624027  0.21121396  0.44477203    -0.02200
Br2551     Br  0.37528145  0.20281548  0.44319235    -0.00800
Br2552     Br  0.40064300  0.21805993  0.47175914    -0.00800
Br2553     Br  0.45608883  0.21333150  0.42057855    -0.00800
Br2554     Br  0.47961009  0.22396574  0.44970818    -0.00800
C2555       C  0.59530932  0.09918503  0.62322178    -0.01900
C2556       C  0.58624414  0.08901690  0.61128326     0.07800
C2557       C  0.58730364  0.07021885  0.60738030    -0.02000
C2558       C  0.59911693  0.06276481  0.61482387    -0.02000
C2559       C  0.60821959  0.07281671  0.62691104     0.07900
C2560       C  0.60552767  0.09065057  0.63122370    -0.02200
Br2561     Br  0.61446151  0.10284144  0.64835060    -0.00800
Br2562     Br  0.59377509  0.12499707  0.62853077    -0.00800
Br2563     Br  0.60430628  0.04025584  0.60754012    -0.00800
Br2564     Br  0.57257433  0.05485273  0.59168516    -0.00800
C2565       C  0.64225281  0.17676348  0.56153303    -0.01900
C2566       C  0.62156316  0.15917200  0.55702433     0.07800
C2567       C  0.61933810  0.15267983  0.54399012    -0.02000
C2568       C  0.63754046  0.16388231  0.53545880    -0.02000
C2569       C  0.65824141  0.18168603  0.53990736     0.07900
C2570       C  0.66058602  0.18781862  0.55306055    -0.02200
Br2571     Br  0.68909542  0.21082430  0.55974276    -0.00800
Br2572     Br  0.64519273  0.18627231  0.57924429    -0.00800
Br2573     Br  0.63341888  0.15556612  0.51750369    -0.00800
Br2574     Br  0.59099128  0.12862795  0.53776322    -0.00800
C2575       C  0.50721313  0.18314389  0.55642335    -0.01900
C2576       C  0.50645233  0.18173252  0.54283966     0.07800
C2577       C  0.51249064  0.16752579  0.53658383    -0.02000
C2578       C  0.51901588  0.15479546  0.54389088    -0.02000
C2579       C  0.52140668  0.15763926  0.55733859     0.07900
C2580       C  0.51588594  0.17217959  0.56355622    -0.02200
Br2581     Br  0.52112256  0.17789264  0.58179898    -0.00800
Br2582     Br  0.49520049  0.19894920  0.56551101    -0.00800
Br2583     Br  0.52499950  0.13360407  0.53550322    -0.00800
Br2584     Br  0.51379865  0.16667061  0.51805074    -0.00800
C2585       C  0.19458851  0.78340348  0.53992059    -0.01900
C2586       C  0.18705297  0.79876434  0.53955116     0.07800
C2587       C  0.18488377  0.80707329  0.52760617    -0.02000
C2588       C  0.19057239  0.80035106  0.51612241    -0.02000
C2589       C  0.19869927  0.78551940  0.51654158     0.07900
C2590       C  0.20043442  0.77682791  0.52844081    -0.02200
Br2591     Br  0.21100719  0.75604237  0.52899477    -0.00800
Br2592     Br  0.19738289  0.77173612  0.55620069    -0.00800
Br2593     Br  0.18654982  0.81079557  0.49972186    -0.00800
Br2594     Br  0.17345799  0.82712246  0.52694970    -0.00800
C2595       C  0.35255150  0.14218680  0.70241048    -0.01900
C2596       C  0.34192795  0.13233507  0.71415407     0.07800
C2597       C  0.33286556  0.10919056  0.71605507    -0.02000
C2598       C  0.33507062  0.09611157  0.70644312    -0.02000
C2599       C  0.34544250  0.10586077  0.69456889     0.07900
C2600       C  0.35402428  0.12898238  0.69258663    -0.02200
Br2601     Br  0.36657916  0.14256906  0.67615065    -0.00800
Br2602     Br  0.36399460  0.17365235  0.69950345    -0.00800
Br2603     Br  0.32508917  0.06513852  0.71002541    -0.00800
Br2604     Br  0.31779548  0.09539839  0.73199309    -0.00800
C2605       C  0.23193940  0.93424537  0.61950289    -0.01900
C2606       C  0.22924714  0.91340464  0.62292874     0.07800
C2607       C  0.24273732  0.91235123  0.63268624    -0.02000
C2608       C  0.26003801  0.93220898  0.63822175    -0.02000
C2609       C  0.26381731  0.95318503  0.63409660     0.07900
C2610       C  0.24922176  0.95412423  0.62504702    -0.02200
Br2611     Br  0.25352502  0.98264027  0.61974331    -0.00800
Br2612     Br  0.21162604  0.93540468  0.60734768    -0.00800
Br2613     Br  0.27845678  0.93072010  0.65159635    -0.00800
Br2614     Br  0.23792533  0.88374929  0.63823456    -0.00800
C2615       C  0.46234129  0.06717565  0.60454749    -0.01900
C2616       C  0.48296460  0.08441668  0.60934343     0.07800
C2617       C  0.48367392  0.09363716  0.62154933    -0.02000
C2618       C  0.46395855  0.08562107  0.62885725    -0.02000
C2619       C  0.44287958  0.07045595  0.62333971     0.07900
C2620       C  0.44229283  0.06164719  0.61092818    -0.02200
Br2621     Br  0.41459095  0.04456378  0.60157355    -0.00800
Br2622     Br  0.46160637  0.05174651  0.58892009    -0.00800
Br2623     Br  0.46654800  0.09470098  0.64664581    -0.00800
Br2624     Br  0.51157527  0.11794740  0.62811266    -0.00800
C2625       C  0.89193955  0.64857363  0.70846410    -0.01900
C2626       C  0.88280154  0.63771512  0.69659411     0.07800
C2627       C  0.85971266  0.62856524  0.69424576    -0.02000
C2628       C  0.84596613  0.63009932  0.70365285    -0.02000
C2629       C  0.85513376  0.64109191  0.71541705     0.07900
C2630       C  0.87812440  0.65019950  0.71783827    -0.02200
Br2631     Br  0.89038764  0.66365608  0.73433972    -0.00800
Br2632     Br  0.92315254  0.66029230  0.71227943    -0.00800
Br2633     Br  0.81448917  0.61769797  0.70022682    -0.00800
Br2634     Br  0.84682019  0.61507713  0.67783674    -0.00800
C2635       C  0.05240759  0.72408063  0.63912191    -0.01900
C2636       C  0.03181804  0.71633769  0.63282766     0.07800
C2637       C  0.03108129  0.72641872  0.62124125    -0.02000
C2638       C  0.05097585  0.74365273  0.61571038    -0.02000
C2639       C  0.07177974  0.75062668  0.62163694     0.07900
C2640       C  0.07238655  0.74106149  0.63350549    -0.02200
Br2641     Br  0.10060857  0.75017078  0.64175959    -0.00800
Br2642     Br  0.05316648  0.71100266  0.65534053    -0.00800
Br2643     Br  0.04957884  0.75826966  0.60025834    -0.00800
Br2644     Br  0.00271779  0.71653232  0.61297068    -0.00800
C2645       C  0.89289958  0.49839821  0.61980141    -0.01900
C2646       C  0.89562015  0.50120684  0.60633347     0.07800
C2647       C  0.90643652  0.52300243  0.60111164    -0.02000
C2648       C  0.91314788  0.54166617  0.60916694    -0.02000
C2649       C  0.91110806  0.53898905  0.62269172     0.07900
C2650       C  0.90129020  0.51722858  0.62795946    -0.02200
Br2651     Br  0.90013776  0.51302163  0.64635984    -0.00800
Br2652     Br  0.87702958  0.46868298  0.62711323    -0.00800
Br2653     Br  0.92322974  0.57050547  0.60135597    -0.00800
Br2654     Br  0.91260100  0.52744175  0.58287339    -0.00800
C2655       C  0.19840799  0.40087179  0.53759848    -0.01900
C2656       C  0.20568399  0.41491543  0.54848761     0.07800
C2657       C  0.21622626  0.43828618  0.54697518    -0.02000
C2658       C  0.21929671  0.44759927  0.53459218    -0.02000
C2659       C  0.21170273  0.43353601  0.52371261     0.07900
C2660       C  0.20138996  0.41017433  0.52521788    -0.02200
Br2661     Br  0.19082918  0.39090460  0.51032256    -0.00800
Br2662     Br  0.18386357  0.36885660  0.53969454    -0.00800
Br2663     Br  0.23445143  0.47964661  0.53247810    -0.00800
Br2664     Br  0.22681058  0.45751322  0.56188551    -0.00800
C2665       C  0.88150796  0.22783981  0.69092216    -0.01900
C2666       C  0.88563455  0.24980083  0.68972057     0.07800
C2667       C  0.87670077  0.25791475  0.69897498    -0.02000
C2668       C  0.86304115  0.24396513  0.70906200    -0.02000
C2669       C  0.85940175  0.22197382  0.71065864     0.07900
C2670       C  0.86933421  0.21434893  0.70152819    -0.02200
Br2671     Br  0.86666955  0.18539394  0.70297308    -0.00800
Br2672     Br  0.89142218  0.21562435  0.67749101    -0.00800
Br2673     Br  0.85016774  0.25617878  0.72062331    -0.00800
Br2674     Br  0.88440081  0.28887926  0.69836594    -0.00800
C2675       C  0.05095910  0.32359300  0.63221516    -0.01900
C2676       C  0.04750376  0.34087356  0.63653312     0.07800
C2677       C  0.06594289  0.36300035  0.63734439    -0.02000
C2678       C  0.08741255  0.36785517  0.63352658    -0.02000
C2679       C  0.09077461  0.35060314  0.62914976     0.07900
C2680       C  0.07254432  0.32843326  0.62864414    -0.02200
Br2681     Br  0.07683312  0.30485472  0.62217849    -0.00800
Br2682     Br  0.02595446  0.29350519  0.63012675    -0.00800
Br2683     Br  0.11236962  0.39822229  0.63442831    -0.00800
Br2684     Br  0.06215558  0.38673752  0.64411360    -0.00800
C2685       C  0.92245067  0.38499571  0.60493665    -0.01900
C2686       C  0.91646739  0.37986283  0.61805393     0.07800
C2687       C  0.90344611  0.38768025  0.62401809    -0.02000
C2688       C  0.89553423  0.39935783  0.61678119    -0.02000
C2689       C  0.90155224  0.40438479  0.60373171     0.07900
C2690       C  0.91575903  0.39795801  0.59800390    -0.02200
Br2691     Br  0.92573629  0.40671866  0.58048780    -0.00800
Br2692     Br  0.93777341  0.37251350  0.59582299    -0.00800
Br2693     Br  0.87560535  0.40764258  0.62459315    -0.00800
Br2694     Br  0.89685619  0.38317340  0.64219129    -0.00800
C2695       C  0.35486367  0.25488420  0.71020663    -0.01900
C2696       C  0.34393811  0.24792740  0.69825669     0.07800
C2697       C  0.32992963  0.22493342  0.69566114    -0.02000
C2698       C  0.32755719  0.20885776  0.70479670    -0.02000
C2699       C  0.33900335  0.21577795  0.71667968     0.07900
C2700       C  0.35231698  0.23892313  0.71942851    -0.02200
Br2701     Br  0.36660754  0.24906909  0.73600153    -0.00800
Br2702     Br  0.37316456  0.28643678  0.71397120    -0.00800
Br2703     Br  0.30981252  0.17746146  0.70055394    -0.00800
Br2704     Br  0.31462350  0.21553530  0.67935034    -0.00800
C2705       C  0.26969352  0.32481428  0.62915675    -0.01900
C2706       C  0.28199008  0.33693980  0.64003325     0.07800
C2707       C  0.27633654  0.35122154  0.64643828    -0.02000
C2708       C  0.25879656  0.35385777  0.64178019    -0.02000
C2709       C  0.24713218  0.34251017  0.63052491     0.07900
C2710       C  0.25225386  0.32751755  0.62444388    -0.02200
Br2711     Br  0.23475467  0.30997048  0.60993111    -0.00800
Br2712     Br  0.27688070  0.30458518  0.62067818    -0.00800
Br2713     Br  0.25143986  0.37367693  0.65058819    -0.00800
Br2714     Br  0.29338215  0.36790872  0.66127842    -0.00800
C2715       C  0.47420794  0.38358008  0.63061667    -0.01900
C2716       C  0.45261330  0.37312204  0.62510233     0.07800
C2717       C  0.45041146  0.37500219  0.61172002    -0.02000
C2718       C  0.46931933  0.38883730  0.60415262    -0.02000
C2719       C  0.49083196  0.39990440  0.60972637     0.07900
C2720       C  0.49324878  0.39674529  0.62291128    -0.02200
Br2721     Br  0.52276458  0.41030537  0.63036352    -0.00800
Br2722     Br  0.47793151  0.38056684  0.64875847    -0.00800
Br2723     Br  0.46559498  0.39297084  0.58614004    -0.00800
Br2724     Br  0.42165073  0.35733080  0.60347211    -0.00800
loop_ 
_geom_bond_atom_site_label_1 
_geom_bond_atom_site_label_2 
_geom_bond_distance 
_geom_bond_site_symmetry_2 
_ccdc_geom_bond_type 
N1            N2   1.324       .  A
N1            C5   1.347       .  A
N1           Cu9   2.078       .  S
N2            C3   1.346       .  A
N2           Cu8   2.085       .  S
C3            C4   1.383       .  A
C3            H6   1.082       .  S
C4            C5   1.382       .  A
C4         C2696   1.478       .  S
C5            H7   1.082       .  S
Cu8          N11   2.085       .  S
Cu9          N19   2.077       .  S
Cu10         N12   2.076       .  S
Cu10         N18   2.076       .  S
N11          N12   1.322       .  A
N11          C15   1.349       .  A
N12          C13   1.343       .  A
C13          C14   1.384       .  A
C13          H16   1.082       .  S
C14          C15   1.388       .  A
C14        C2716   1.487       .  S
C15          H17   1.082       .  S
N18          N19   1.322       .  A
N18          C22   1.346       .  A
N19          C20   1.346       .  A
C20          C21   1.382       .  A
C20          H23   1.082       .  S
C21          C22   1.383       .  A
C21        C2706   1.477       .  S
C22          H24   1.082       .  S
N25          N26   1.324       .  A
N25          C29   1.348       .  A
N25         Cu33   2.094       .  S
N26          C27   1.347       .  A
N26         Cu32   2.087       .  S
C27          C28   1.386       .  A
C27          H30   1.082       .  S
C28          C29   1.388       .  A
C28        C2666   1.492       .  S
C29          H31   1.082       .  S
Cu32         N35   2.086       .  S
Cu33         N43   2.093       .  S
Cu34         N36   2.068       .  S
Cu34         N42   2.069       .  S
N35          N36   1.321       .  A
N35          C39   1.348       .  A
N36          C37   1.343       .  A
C37          C38   1.385       .  A
C37          H40   1.082       .  S
C38          C39   1.390       .  A
C38        C2686   1.490       .  S
C39          H41   1.082       .  S
N42          N43   1.322       .  A
N42          C46   1.344   1_655  A
N43          C44   1.349   1_655  A
C44          C45   1.389       .  A
C44          H47   1.082       .  S
C45          C46   1.383       .  A
C45        C2676   1.488       .  S
C46          H48   1.082       .  S
N49          N50   1.324       .  A
N49          C53   1.350       .  A
N49         Cu57   2.093       .  S
N50          C51   1.344       .  A
N50         Cu56   2.078       .  S
C51          C52   1.382       .  A
C51          H54   1.082       .  S
C52          C53   1.386       .  A
C52        C2709   1.483       .  S
C53          H55   1.082       .  S
Cu56         N59   2.077       .  S
Cu57         N67   2.093       .  S
Cu58         N60   2.064       .  S
Cu58         N66   2.065       .  S
N59          N60   1.322       .  A
N59          C63   1.347       .  A
N60          C61   1.343       .  A
C61          C62   1.379       .  A
C61          H64   1.082       .  S
C62          C63   1.384       .  A
C62        C2656   1.474       .  S
C63          H65   1.082       .  S
N66          N67   1.323       .  A
N66          C70   1.343       .  A
N67          C68   1.349       .  A
C68          C69   1.388       .  A
C68          H71   1.082       .  S
C69          C70   1.380       .  A
C69        C2679   1.482       .  S
C70          H72   1.082       .  S
N73          N74   1.324       .  A
N73          C77   1.347       .  A
N73         Cu81   2.085       .  S
N74          C75   1.347       .  A
N74         Cu80   2.089       .  S
C75          C76   1.387       .  A
C75          H78   1.082       .  S
C76          C77   1.386       .  A
C76        C2626   1.490       .  S
C77          H79   1.082       .  S
Cu80         N83   2.088       .  S
Cu81         N91   2.084       .  S
Cu82         N84   2.073       .  S
Cu82         N90   2.074       .  S
N83          N84   1.321       .  A
N83          C87   1.349       .  A
N84          C85   1.344       .  A
C85          C86   1.385       .  A
C85          H88   1.082       .  S
C86          C87   1.390       .  A
C86        C2649   1.490       .  S
C87          H89   1.082       .  S
N90          N91   1.323       .  A
N90          C94   1.345   1_655  A
N91          C92   1.349       .  A
C92          C93   1.385   1_655  A
C92          H95   1.082       .  S
C93          C94   1.381       .  A
C93        C2636   1.478       .  S
C94          H96   1.082       .  S
N97          N98   1.323       .  A
N97         C101   1.346       .  A
N97        Cu105   2.083       .  S
N98          C99   1.348       .  A
N98        Cu104   2.087       .  S
C99         C100   1.388       .  A
C99         H102   1.082       .  S
C100        C101   1.386       .  A
C100       C2599   1.491       .  S
C101        H103   1.082       .  S
Cu104       N107   2.086       .  S
Cu105       N115   2.083       .  S
Cu106       N108   2.076       .  S
Cu106       N114   2.077       .  S
N107        N108   1.321       .  A
N107        C111   1.346       .  A
N108        C109   1.345       .  A
C109        C110   1.388       .  A
C109        H112   1.081       .  S
C110        C111   1.391       .  A
C110       C2619   1.496       .  S
C111        H113   1.081       .  S
N114        N115   1.323       .  A
N114        C118   1.345   1_545  A
N115        C116   1.348   1_545  A
C116        C117   1.385       .  A
C116        H119   1.082       .  S
C117        C118   1.383       .  A
C117       C2609   1.481       .  S
C118        H120   1.082       .  S
N121        N122   1.322       .  A
N121        C125   1.346       .  A
N121       Cu129   2.075       .  S
N122        C123   1.346       .  A
N122       Cu128   2.079       .  S
C123        C124   1.385       .  A
C123        H126   1.082       .  S
C124        C125   1.384       .  A
C124       C2639   1.483       .  S
C125        H127   1.082       .  S
Cu128       N131   2.079       .  S
Cu129       N139   2.075       .  S
Cu130       N132   2.095       .  S
Cu130       N138   2.095       .  S
N131        N132   1.324       .  A
N131        C135   1.345       .  A
N132        C133   1.350       .  A
C133        C134   1.386       .  A
C133        H136   1.082       .  S
C134        C135   1.381       .  A
C134       C2586   1.482       .  S
C135        H137   1.082       .  S
N138        N139   1.324       .  A
N138        C142   1.348       .  A
N139        C140   1.347       .  A
C140        C141   1.381       .  A
C140        H143   1.082       .  S
C141        C142   1.385       .  A
C141       C2606   1.481       .  S
C142        H144   1.082       .  S
N145        C150   1.354       .  A
N145        C149   1.353       .  A
N145        H177   1.039       .  S
N146        C153   1.349       .  A
N146        C154   1.351       .  A
N147        C152   1.353       .  A
N147        C151   1.357       .  A
N147        H178   1.030       .  S
N148        C155   1.353       .  A
N148        C156   1.351       .  A
C149        C157   1.388       .  A
C149        C165   1.416       .  A
C150        C166   1.414       .  A
C150        C158   1.386       .  A
C151        C159   1.387       .  A
C151        C168   1.424       .  A
C152        C167   1.423       .  A
C152        C160   1.388       .  A
C153        C165   1.413       .  A
C153        C161   1.385       .  A
C154        C168   1.421       .  A
C154        C162   1.389       .  A
C155        C163   1.384       .  A
C155        C166   1.414       .  A
C156        C164   1.389       .  A
C156        C167   1.422       .  A
C157        C158   1.372       .  A
C157        H169   1.082       .  S
C158        H170   1.082       .  S
C159        C160   1.375       .  A
C159        H171   1.082       .  S
C160        H172   1.082       .  S
C161        C162   1.369       .  A
C161        H173   1.082       .  S
C162        H174   1.081       .  S
C163        C164   1.373       .  A
C163        H175   1.082       .  S
C164        H176   1.082       .  S
C165       C2579   1.489       .  S
C166       C2566   1.496       .  S
C167       C2556   1.491       .  S
C168       C2616   1.499       .  S
N179        N180   1.319       .  A
N179        C183   1.351       .  A
N179       Cu187   2.095       .  S
N180        C181   1.338       .  A
N180       Cu186   2.046       .  S
C181        C182   1.380       .  A
C181        H184   1.082       .  S
C182        C183   1.394       .  A
C182       C2536   1.489       .  S
C183        H185   1.082       .  S
Cu186       N189   2.045       .  S
Cu187       N197   2.098       .  S
Cu188       N190   2.071       .  S
Cu188       N196   2.074       .  S
N189        N190   1.318       .  A
N189        C193   1.338       .  A
N190        C191   1.347       .  A
C191        C192   1.389       .  A
C191        H194   1.082       .  S
C192        C193   1.381       .  A
C192       C2576   1.481       .  S
C193        H195   1.082       .  S
N196        N197   1.327       .  A
N196        C200   1.345       .  A
N197        C198   1.348       .  A
C198        C199   1.383       .  A
C198        H201   1.082       .  S
C199        C200   1.378       .  A
C199       C2546   1.475       .  S
C200        H202   1.082       .  S
N203        C208   1.353       .  A
N203        C207   1.354       .  A
N203        H235   1.037       .  S
N204        C211   1.354       .  A
N204        C212   1.352       .  A
N205        C210   1.354       .  A
N205        C209   1.352       .  A
N205        H236   1.039       .  S
N206        C213   1.349       .  A
N206        C214   1.351       .  A
C207        C215   1.387       .  A
C207        C223   1.418       .  A
C208        C224   1.418       .  A
C208        C216   1.387       .  A
C209        C217   1.387       .  A
C209        C226   1.416       .  A
C210        C225   1.417       .  A
C210        C218   1.387       .  A
C211        C223   1.416       .  A
C211        C219   1.386       .  A
C212        C226   1.417       .  A
C212        C220   1.387       .  A
C213        C221   1.386       .  A
C213        C224   1.412       .  A
C214        C222   1.386       .  A
C214        C225   1.413       .  A
C215        C216   1.377       .  A
C215        H227   1.082       .  S
C216        H228   1.082       .  S
C217        C218   1.380       .  A
C217        H229   1.082       .  S
C218        H230   1.082       .  S
C219        C220   1.370       .  A
C219        H231   1.082       .  S
C220        H232   1.082       .  S
C221        C222   1.372       .  A
C221        H233   1.082       .  S
C222        H234   1.082       .  S
C223       C2526   1.496       .  S
C224       C2539   1.489       .  S
C225       C2719   1.496       .  S
C226       C2516   1.493       .  S
N237        N238   1.320       .  A
N237        C241   1.352       .  A
N237       Cu245   2.095       .  S
N238        C239   1.339       .  A
N238       Cu244   2.057       .  S
C239        C240   1.383       .  A
C239        H242   1.082       .  S
C240        C241   1.395       .  A
C240       C2529   1.495       .  S
C241        H243   1.081       .  S
Cu244       N247   2.058       .  S
Cu245       N255   2.097       .  S
Cu246       N248   2.082       .  S
Cu246       N254   2.085       .  S
N247        N248   1.319       .  A
N247        C251   1.341       .  A
N248        C249   1.349       .  A
C249        C250   1.392       .  A
C249        H252   1.081       .  S
C250        C251   1.384       .  A
C250       C2496   1.490       .  S
C251        H253   1.082       .  S
N254        N255   1.326       .  A
N254        C258   1.345       .  A
N255        C256   1.349       .  A
C256        C257   1.385       .  A
C256        H259   1.082       .  S
C257        C258   1.382       .  A
C257       C2506   1.484       .  S
C258        H260   1.082       .  S
N261        N262   1.320       .  A
N261        C265   1.345       .  A
N261       Cu269   2.071       .  S
N262        C263   1.342       .  A
N262       Cu268   2.071       .  S
C263        C264   1.388       .  A
C263        H266   1.081       .  S
C264        C265   1.389       .  A
C264       C2476   1.492       .  S
C265        H267   1.081       .  S
Cu268       N271   2.074       .  S
Cu269       N279   2.073       .  S
Cu270       N272   2.089       .  S
Cu270       N278   2.088       .  S
N271        N272   1.322       .  A
N271        C275   1.344       .  A
N272        C273   1.348       .  A
C273        C274   1.389       .  A
C273        H276   1.082       .  S
C274        C275   1.384       .  A
C274       C2569   1.489       .  S
C275        H277   1.082       .  S
N278        N279   1.323       .  A
N278        C282   1.348       .  A
N279        C280   1.345       .  A
C280        C281   1.381       .  A
C280        H283   1.082       .  S
C281        C282   1.386       .  A
C281       C2486   1.481       .  S
C282        H284   1.082       .  S
N285        C290   1.353       .  A
N285        C289   1.351       .  A
N285        H317   1.040       .  S
N286        C293   1.351       .  A
N286        C294   1.350       .  A
N287        C292   1.353       .  A
N287        C291   1.352       .  A
N287        H318   1.040       .  S
N288        C295   1.350       .  A
N288        C296   1.350       .  A
C289        C297   1.387       .  A
C289        C305   1.413       .  A
C290        C306   1.415       .  A
C290        C298   1.387       .  A
C291        C299   1.386       .  A
C291        C308   1.414       .  A
C292        C307   1.417       .  A
C292        C300   1.387       .  A
C293        C305   1.412       .  A
C293        C301   1.386       .  A
C294        C308   1.413       .  A
C294        C302   1.387       .  A
C295        C303   1.386       .  A
C295        C306   1.414       .  A
C296        C304   1.387       .  A
C296        C307   1.415       .  A
C297        C298   1.377       .  A
C297        H309   1.082       .  S
C298        H310   1.082       .  S
C299        C300   1.381       .  A
C299        H311   1.082       .  S
C300        H312   1.082       .  S
C301        C302   1.373       .  A
C301        H313   1.082       .  S
C302        H314   1.082       .  S
C303        C304   1.376       .  A
C303        H315   1.082       .  S
C304        H316   1.082       .  S
C305       C2479   1.488       .  S
C306       C2499   1.497       .  S
C307       C2646   1.497       .  S
C308       C2689   1.492       .  S
N319        N320   1.323       .  A
N319        C323   1.347       .  A
N319       Cu327   2.087       .  S
N320        C321   1.346       .  A
N320       Cu326   2.077       .  S
C321        C322   1.383       .  A
C321        H324   1.082       .  S
C322        C323   1.385       .  A
C322       C2459   1.483       .  S
C323        H325   1.082       .  S
Cu326       N329   2.076       .  S
Cu327       N337   2.087       .  S
Cu328       N330   2.077       .  S
Cu328       N336   2.078   1_545  S
N329        N330   1.321       .  A
N329        C333   1.345       .  A
N330        C331   1.345       .  A
C331        C332   1.388       .  A
C331        H334   1.081       .  S
C332        C333   1.388       .  A
C332       C2559   1.492       .  S
C333        H335   1.082       .  S
N336        N337   1.323   1_565  A
N336        C340   1.346       .  A
N337        C338   1.348   1_545  A
C338        C339   1.385       .  A
C338        H341   1.082       .  S
C339        C340   1.382       .  A
C339       C2469   1.481       .  S
C340        H342   1.082       .  S
N343        N344   1.324       .  A
N343        C347   1.347       .  A
N343       Cu351   2.079       .  S
N344        C345   1.345       .  A
N344       Cu350   2.084       .  S
C345        C346   1.384       .  A
C345        H348   1.082       .  S
C346        C347   1.384       .  A
C346       C2436   1.482       .  S
C347        H349   1.082       .  S
Cu350       N353   2.084       .  S
Cu351       N361   2.078       .  S
Cu352       N354   2.065       .  S
Cu352       N360   2.066       .  S
N353        N354   1.321       .  A
N353        C357   1.346       .  A
N354        C355   1.344       .  A
C355        C356   1.384       .  A
C355        H358   1.082       .  S
C356        C357   1.388       .  A
C356       C2519   1.486       .  S
C357        H359   1.082       .  S
N360        N361   1.323       .  A
N360        C364   1.343       .  A
N361        C362   1.347       .  A
C362        C363   1.383       .  A
C362        H365   1.082       .  S
C363        C364   1.379       .  A
C363       C2446   1.473       .  S
C364        H366   1.082       .  S
N367        N368   1.322       .  A
N367        C371   1.347       .  A
N367       Cu375   2.079       .  S
N368        C369   1.344       .  A
N368       Cu374   2.070       .  S
C369        C370   1.382       .  A
C369        H372   1.082       .  S
C370        C371   1.385       .  A
C370       C2449   1.479       .  S
C371        H373   1.082       .  S
Cu374       N377   2.070       .  S
Cu375       N385   2.079       .  S
Cu376       N378   2.086       .  S
Cu376       N384   2.086       .  S
N377        N378   1.323       .  A
N377        C381   1.345       .  A
N378        C379   1.347       .  A
C379        C380   1.385       .  A
C379        H382   1.082       .  S
C380        C381   1.382       .  A
C380       C2426   1.480       .  S
C381        H383   1.082       .  S
N384        N385   1.324       .  A
N384        C388   1.348       .  A
N385        C386   1.345       .  A
C386        C387   1.382       .  A
C386        H389   1.082       .  S
C387        C388   1.385       .  A
C387       C2466   1.481       .  S
C388        H390   1.082       .  S
O391       Cu399   2.022       .  S
O391        C401   1.279       .  A
O392       Cu399   2.030       .  S
O392        C402   1.280       .  A
O393       Cu399   2.016       .  S
O393        C403   1.278       .  A
O394       Cu399   2.017       .  S
O394        C404   1.278       .  A
O395       Cu400   2.011       .  S
O395        C404   1.278       .  A
O396       Cu400   2.011       .  S
O396        C403   1.278       .  A
O397       Cu400   2.005       .  S
O397        C402   1.276       .  A
O398       Cu400   2.006       .  S
O398        C401   1.277       .  A
Cu399      Cu400   2.370       .  S
C401       C2406   1.478       .  S
C402       C2629   1.482       .  S
C403       C2439   1.492       .  S
C404       C2416   1.487       .  S
O405       Cu413   2.014       .  S
O405        C415   1.278       .  A
O406       Cu413   2.010       .  S
O406        C416   1.276       .  A
O407       Cu413   2.026       .  S
O407        C417   1.280       .  A
O408       Cu413   2.033       .  S
O408        C418   1.280       .  A
O409       Cu414   2.023       .  S
O409        C418   1.278       .  A
O410       Cu414   2.027       .  S
O410        C417   1.279       .  A
O411       Cu414   2.035       .  S
O411        C416   1.281       .  A
O412       Cu414   2.025       .  S
O412        C415   1.280       .  A
Cu413      Cu414   2.364       .  S
C415       C2456   1.493       .  S
C416       C2396   1.486       .  S
C417       C2389   1.491       .  S
C418       C2669   1.513       .  S
O419       Cu427   2.033       .  S
O419        C429   1.281       .  A
O420       Cu427   2.029       .  S
O420        C430   1.280       .  A
O421       Cu427   2.015       .  S
O421        C431   1.278       .  A
O422       Cu427   2.016       .  S
O422        C432   1.278       .  A
O423       Cu428   2.018       .  S
O423        C432   1.279       .  A
O424       Cu428   2.018       .  S
O424        C431   1.279       .  A
O425       Cu428   2.001       .  S
O425        C430   1.276       .  A
O426       Cu428   2.005       .  S
O426        C429   1.277       .  A
Cu427      Cu428   2.372       .  S
C429       C2366   1.489       .  S
C430       C2699   1.486       .  S
C431       C2596   1.482       .  S
C432       C2376   1.481       .  S
N433        N434   1.322       .  A
N433        C437   1.348       .  A
N433       Cu441   2.090       .  S
N434        C435   1.343       .  A
N434       Cu440   2.071       .  S
C435        C436   1.384       .  A
C435        H438   1.082       .  S
C436        C437   1.390       .  A
C436       C2379   1.490       .  S
C437        H439   1.082       .  S
Cu440       N443   2.070       .  S
Cu441       N451   2.090       .  S
Cu442       N444   2.073       .  S
Cu442       N450   2.075       .  S
N443        N444   1.319       .  A
N443        C447   1.344       .  A
N444        C445   1.345       .  A
C445        C446   1.389       .  A
C445        H448   1.081       .  S
C446        C447   1.387       .  A
C446       C2356   1.490       .  S
C447        H449   1.082       .  S
N450        N451   1.324       .  A
N450        C454   1.343       .  A
N451        C452   1.349       .  A
C452        C453   1.387       .  A
C452        H455   1.082       .  S
C453        C454   1.382       .  A
C453       C2346   1.484       .  S
C454        H456   1.082       .  S
N457        N458   1.325       .  A
N457        C461   1.349       .  A
N457       Cu465   2.094       .  S
N458        C459   1.345       .  A
N458       Cu464   2.083       .  S
C459        C460   1.383       .  A
C459        H462   1.082       .  S
C460        C461   1.387       .  A
C460       C2399   1.487       .  S
C461        H463   1.082       .  S
Cu464       N467   2.080       .  S
Cu465       N475   2.092       .  S
Cu466       N468   2.060       .  S
Cu466       N474   2.061       .  S
N467        N468   1.318       .  A
N467        C471   1.346       .  A
N468        C469   1.343       .  A
C469        C470   1.387       .  A
C469        H472   1.081       .  S
C470        C471   1.391       .  A
C470       C2336   1.493       .  S
C471        H473   1.081       .  S
N474        N475   1.320       .  A
N474        C478   1.341   1_655  A
N475        C476   1.349   1_655  A
C476        C477   1.393       .  A
C476        H479   1.081       .  S
C477        C478   1.384       .  A
C477       C2326   1.493       .  S
C478        H480   1.082       .  S
N481        N482   1.324       .  A
N481        C485   1.347       .  A
N481       Cu489   2.080       .  S
N482        C483   1.345       .  A
N482       Cu488   2.077       .  S
C483        C484   1.382       .  A
C483        H486   1.082       .  S
C484        C485   1.383       .  A
C484       C2349   1.479       .  S
C485        H487   1.082       .  S
Cu488       N491   2.076       .  S
Cu489       N499   2.079       .  S
Cu490       N492   2.075       .  S
Cu490       N498   2.074       .  S
N491        N492   1.322       .  A
N491        C495   1.346       .  A
N492        C493   1.346       .  A
C493        C494   1.382       .  A
C493        H496   1.082       .  S
C494        C495   1.384       .  A
C494       C2316   1.478       .  S
C495        H497   1.082       .  S
N498        N499   1.320       .  A
N498        C502   1.343       .  A
N499        C500   1.345       .  A
C500        C501   1.391       .  A
C500        H503   1.081       .  S
C501        C502   1.389       .  A
C501       C2329   1.498       .  S
C502        H504   1.080       .  S
N505        C510   1.355       .  A
N505        C509   1.352       .  A
N505        H537   1.039       .  S
N506        C513   1.350       .  A
N506        C514   1.353       .  A
N507        C512   1.352       .  A
N507        C511   1.354       .  A
N507        H538   1.039       .  S
N508        C515   1.351       .  A
N508        C516   1.349       .  A
C509        C517   1.388       .  A
C509        C525   1.416       .  A
C510        C526   1.416       .  A
C510        C518   1.386       .  A
C511        C519   1.386       .  A
C511        C528   1.415       .  A
C512        C527   1.414       .  A
C512        C520   1.387       .  A
C513        C525   1.413       .  A
C513        C521   1.386       .  A
C514        C528   1.416       .  A
C514        C522   1.386       .  A
C515        C523   1.385       .  A
C515        C526   1.412       .  A
C516        C524   1.387       .  A
C516        C527   1.413       .  A
C517        C518   1.376       .  A
C517        H529   1.082       .  S
C518        H530   1.082       .  S
C519        C520   1.377       .  A
C519        H531   1.082       .  S
C520        H532   1.082       .  S
C521        C522   1.373       .  A
C521        H533   1.082       .  S
C522        H534   1.082       .  S
C523        C524   1.373       .  A
C523        H535   1.082       .  S
C524        H536   1.082       .  S
C525       C2286   1.487       .  S
C526       C2306   1.495       .  S
C527       C2296   1.485       .  S
C528       C2279   1.499       .  S
N539        N540   1.323       .  A
N539        C543   1.348       .  A
N539       Cu547   2.081       .  S
N540        C541   1.346       .  A
N540       Cu546   2.086       .  S
C541        C542   1.384       .  A
C541        H544   1.082       .  S
C542        C543   1.385       .  A
C542       C2256   1.482       .  S
C543        H545   1.082       .  S
Cu546       N549   2.086       .  S
Cu547       N557   2.081       .  S
Cu548       N550   2.074       .  S
Cu548       N556   2.074       .  S
N549        N550   1.321       .  A
N549        C553   1.345       .  A
N550        C551   1.347       .  A
C551        C552   1.387       .  A
C551        H554   1.082       .  S
C552        C553   1.389       .  A
C552       C2309   1.491       .  S
C553        H555   1.082       .  S
N556        N557   1.323       .  A
N556        C560   1.345       .  A
N557        C558   1.346       .  A
C558        C559   1.384       .  A
C558        H561   1.082       .  S
C559        C560   1.382       .  A
C559       C2266   1.481   1_556  S
C560        H562   1.082       .  S
N563        N564   1.325       .  A
N563        C567   1.351       .  A
N563       Cu571   2.105       .  S
N564        C565   1.347       .  A
N564       Cu570   2.085       .  S
C565        C566   1.383       .  A
C565        H568   1.082       .  S
C566        C567   1.389       .  A
C566       C2386   1.489       .  S
C567        H569   1.082       .  S
Cu570       N573   2.083       .  S
Cu571       N581   2.104       .  S
Cu572       N574   2.059       .  S
Cu572       N580   2.059       .  S
N573        N574   1.320       .  A
N573        C577   1.347       .  A
N574        C575   1.342       .  A
C575        C576   1.383       .  A
C575        H578   1.082       .  S
C576        C577   1.390       .  A
C576       C2299   1.486       .  S
C577        H579   1.081       .  S
N580        N581   1.323       .  A
N580        C584   1.344   1_545  A
N581        C582   1.350       .  A
C582        C583   1.389   1_545  A
C582        H585   1.082   1_545  S
C583        C584   1.379       .  A
C583       C2246   1.483       .  S
C584        H586   1.082       .  S
N587        N588   1.324       .  A
N587        C591   1.348       .  A
N587       Cu595   2.091       .  S
N588        C589   1.346       .  A
N588       Cu594   2.078       .  S
C589        C590   1.382       .  A
C589        H592   1.082       .  S
C590        C591   1.385       .  A
C590       C2409   1.482       .  S
C591        H593   1.082       .  S
Cu594       N597   2.077       .  S
Cu595       N605   2.091       .  S
Cu596       N598   2.069       .  S
Cu596       N604   2.070       .  S
N597        N598   1.321       .  A
N597        C601   1.345       .  A
N598        C599   1.345       .  A
C599        C600   1.385       .  A
C599        H602   1.082       .  S
C600        C601   1.387       .  A
C600       C2236   1.485       .  S
C601        H603   1.082       .  S
N604        N605   1.323       .  A
N604        C608   1.343       .  A
N605        C606   1.349       .  A
C606        C607   1.388       .  A
C606        H609   1.082       .  S
C607        C608   1.382       .  A
C607       C2226   1.485       .  S
C608        H610   1.082       .  S
N611        N612   1.325       .  A
N611        C615   1.348       .  A
N611       Cu619   2.089       .  S
N612        C613   1.346       .  A
N612       Cu618   2.086       .  S
C613        C614   1.382       .  A
C613        H616   1.082       .  S
C614        C615   1.383       .  A
C614       C2229   1.480       .  S
C615        H617   1.082       .  S
Cu618       N621   2.086       .  S
Cu619       N629   2.088       .  S
Cu620       N622   2.072       .  S
Cu620       N628   2.072       .  S
N621        N622   1.322       .  A
N621        C625   1.349       .  A
N622        C623   1.344       .  A
C623        C624   1.382       .  A
C623        H626   1.082       .  S
C624        C625   1.386       .  A
C624       C2216   1.480       .  S
C625        H627   1.082       .  S
N628        N629   1.323       .  A
N628        C632   1.345       .  A
N629        C630   1.349       .  A
C630        C631   1.386       .  A
C630        H633   1.082       .  S
C631        C632   1.381       .  A
C631       C2249   1.480       .  S
C632        H634   1.082       .  S
N635        C640   1.354       .  A
N635        C639   1.356       .  A
N635        H667   1.044       .  S
N636        C643   1.348       .  A
N636        C644   1.349       .  A
N637        C642   1.353       .  A
N637        C641   1.356       .  A
N637        H668   1.034       .  S
N638        C645   1.356       .  A
N638        C646   1.354       .  A
C639        C647   1.384       .  A
C639        C655   1.412       .  A
C640        C656   1.418       .  A
C640        C648   1.387       .  A
C641        C649   1.387       .  A
C641        C658   1.421       .  A
C642        C657   1.420       .  A
C642        C650   1.388       .  A
C643        C655   1.409       .  A
C643        C651   1.385       .  A
C644        C658   1.417       .  A
C644        C652   1.389       .  A
C645        C653   1.387       .  A
C645        C656   1.424       .  A
C646        C654   1.385       .  A
C646        C657   1.420       .  A
C647        C648   1.376       .  A
C647        H659   1.082       .  S
C648        H660   1.082       .  S
C649        C650   1.373       .  A
C649        H661   1.082       .  S
C650        H662   1.082       .  S
C651        C652   1.374       .  A
C651        H663   1.082       .  S
C652        H664   1.082       .  S
C653        C654   1.368       .  A
C653        H665   1.080       .  S
C654        H666   1.081       .  S
C655       C2206   1.494       .  S
C656       C2259   1.536       .  S
C657       C2339   1.494       .  S
C658       C2196   1.493       .  S
N669        N670   1.322       .  A
N669        C673   1.349       .  A
N669       Cu677   2.090       .  S
N670        C671   1.342       .  A
N670       Cu676   2.063       .  S
C671        C672   1.381       .  A
C671        H674   1.082       .  S
C672        C673   1.389       .  A
C672       C2176   1.485       .  S
C673        H675   1.082       .  S
Cu676       N679   2.063       .  S
Cu677       N687   2.091       .  S
Cu678       N680   2.092       .  S
Cu678       N686   2.093       .  S
N679        N680   1.321       .  A
N679        C683   1.344       .  A
N680        C681   1.348       .  A
C681        C682   1.391       .  A
C681        H684   1.082       .  S
C682        C683   1.384       .  A
C682       C2209   1.490       .  S
C683        H685   1.082       .  S
N686        N687   1.325       .  A
N686        C690   1.349       .  A
N687        C688   1.347       .  A
C688        C689   1.384       .  A
C688        H691   1.082       .  S
C689        C690   1.385       .  A
C689       C2186   1.484   1_556  S
C690        H692   1.082       .  S
N693        C698   1.357       .  A
N693        C697   1.354       .  A
N693        H725   1.023       .  S
N694        C701   1.353       .  A
N694        C702   1.353       .  A
N695        C700   1.355       .  A
N695        C699   1.354       .  A
N695        H726   1.021       .  S
N696        C703   1.351       .  A
N696        C704   1.350       .  A
C697        C705   1.388       .  A
C697        C713   1.419       .  A
C698        C714   1.419       .  A
C698        C706   1.386       .  A
C699        C707   1.387       .  A
C699        C716   1.417       .  A
C700        C715   1.418       .  A
C700        C708   1.387       .  A
C701        C713   1.416       .  A
C701        C709   1.387       .  A
C702        C716   1.418       .  A
C702        C710   1.387       .  A
C703        C711   1.386       .  A
C703        C714   1.413       .  A
C704        C712   1.387       .  A
C704        C715   1.414       .  A
C705        C706   1.373       .  A
C705        H717   1.082       .  S
C706        H718   1.082       .  S
C707        C708   1.374       .  A
C707        H719   1.082       .  S
C708        H720   1.082       .  S
C709        C710   1.369       .  A
C709        H721   1.082       .  S
C710        H722   1.082       .  S
C711        C712   1.372       .  A
C711        H723   1.082       .  S
C712        H724   1.082       .  S
C713       C2166   1.491       .  S
C714       C2179   1.494       .  S
C715       C2239   1.490       .  S
C716       C2359   1.492       .  S
N727        N728   1.323       .  A
N727        C731   1.344       .  A
N727       Cu735   2.074       .  S
N728        C729   1.344       .  A
N728       Cu734   2.070       .  S
C729        C730   1.383       .  A
C729        H732   1.082       .  S
C730        C731   1.384       .  A
C730       C2169   1.480       .  S
C731        H733   1.082       .  S
Cu734       N737   2.070       .  S
Cu735       N745   2.074       .  S
Cu736       N738   2.076       .  S
Cu736       N744   2.077       .  S
N737        N738   1.321       .  A
N737        C741   1.345       .  A
N738        C739   1.344       .  A
C739        C740   1.387       .  A
C739        H742   1.081       .  S
C740        C741   1.387       .  A
C740       C2289   1.488       .  S
C741        H743   1.082       .  S
N744        N745   1.321       .  A
N744        C748   1.346   1_556  A
N745        C746   1.346   1_556  A
C746        C747   1.385       .  A
C746        H749   1.082       .  S
C747        C748   1.385       .  A
C747       C2156   1.484       .  S
C748        H750   1.082       .  S
N751        N752   1.323       .  A
N751        C755   1.346       .  A
N751       Cu759   2.076       .  S
N752        C753   1.346       .  A
N752       Cu758   2.082       .  S
C753        C754   1.386       .  A
C753        H756   1.082       .  S
C754        C755   1.383       .  A
C754       C2419   1.482       .  S
C755        H757   1.082       .  S
Cu758       N761   2.082       .  S
Cu759       N769   2.076       .  S
Cu760       N762   2.069       .  S
Cu760       N768   2.070       .  S
N761        N762   1.322       .  A
N761        C765   1.344       .  A
N762        C763   1.345       .  A
C763        C764   1.385       .  A
C763        H766   1.082       .  S
C764        C765   1.387       .  A
C764       C2199   1.486       .  S
C765        H767   1.082       .  S
N768        N769   1.322       .  A
N768        C772   1.344   1_655  A
N769        C770   1.346   1_655  A
C770        C771   1.384       .  A
C770        H773   1.082       .  S
C771        C772   1.381       .  A
C771       C2146   1.477       .  S
C772        H774   1.082       .  S
N775        N776   1.324       .  A
N775        C779   1.347       .  A
N775       Cu783   2.080       .  S
N776        C777   1.347       .  A
N776       Cu782   2.091       .  S
C777        C778   1.387       .  A
C777        H780   1.082       .  S
C778        C779   1.385       .  A
C778       C2369   1.488       .  S
C779        H781   1.082       .  S
Cu782       N785   2.090       .  S
Cu783       N793   2.079   1_545  S
Cu784       N786   2.075       .  S
Cu784       N792   2.075   1_545  S
N785        N786   1.321       .  A
N785        C789   1.348       .  A
N786        C787   1.345       .  A
C787        C788   1.386       .  A
C787        H790   1.082       .  S
C788        C789   1.390       .  A
C788       C2276   1.494       .  S
C789        H791   1.082       .  S
N792        N793   1.323       .  A
N792        C796   1.345       .  A
N793        C794   1.347       .  A
C794        C795   1.384       .  A
C794        H797   1.082       .  S
C795        C796   1.383       .  A
C795       C2136   1.480       .  S
C796        H798   1.082       .  S
N799        N800   1.323       .  A
N799        C803   1.344       .  A
N799       Cu807   2.067       .  S
N800        C801   1.346       .  A
N800       Cu806   2.080       .  S
C801        C802   1.384       .  A
C801        H804   1.082       .  S
C802        C803   1.380       .  A
C802       C2149   1.476       .  S
C803        H805   1.082       .  S
Cu806       N809   2.080       .  S
Cu807       N817   2.068       .  S
Cu808       N810   2.076       .  S
Cu808       N816   2.076       .  S
N809        N810   1.322       .  A
N809        C813   1.346       .  A
N810        C811   1.346       .  A
C811        C812   1.385       .  A
C811        H814   1.082       .  S
C812        C813   1.385       .  A
C812       C2129   1.485       .  S
C813        H815   1.082       .  S
N816        N817   1.323       .  A
N816        C820   1.344       .  A
N817        C818   1.346       .  A
C818        C819   1.381       .  A
C818        H821   1.082       .  S
C819        C820   1.381       .  A
C819       C2139   1.473       .  S
C820        H822   1.082       .  S
N823        N824   1.325       .  A
N823        C827   1.348       .  A
N823       Cu831   2.088       .  S
N824        C825   1.347       .  A
N824       Cu830   2.085       .  S
C825        C826   1.382       .  A
C825        H828   1.082       .  S
C826        C827   1.384       .  A
C826       C2096   1.480       .  S
C827        H829   1.082       .  S
Cu830       N833   2.085       .  S
Cu831       N841   2.088       .  S
Cu832       N834   2.070       .  S
Cu832       N840   2.071       .  S
N833        N834   1.323       .  A
N833        C837   1.348       .  A
N834        C835   1.345       .  A
C835        C836   1.380       .  A
C835        H838   1.082       .  S
C836        C837   1.385       .  A
C836       C2119   1.477       .  S
C837        H839   1.082       .  S
N840        N841   1.323       .  A
N840        C844   1.345   1_455  A
N841        C842   1.348   1_455  A
C842        C843   1.386       .  A
C842        H845   1.082       .  S
C843        C844   1.382       .  A
C843       C2109   1.481       .  S
C844        H846   1.082       .  S
N847        N848   1.323       .  A
N847        C851   1.346       .  A
N847       Cu855   2.083       .  S
N848        C849   1.346       .  A
N848       Cu854   2.076       .  S
C849        C850   1.383       .  A
C849        H852   1.082       .  S
C850        C851   1.384       .  A
C850       C2066   1.482       .  S
C851        H853   1.082       .  S
Cu854       N857   2.074       .  S
Cu855       N865   2.083       .  S
Cu856       N858   2.071       .  S
Cu856       N864   2.073       .  S
N857        N858   1.320       .  A
N857        C861   1.343       .  A
N858        C859   1.345       .  A
C859        C860   1.388       .  A
C859        H862   1.081       .  S
C860        C861   1.388       .  A
C860       C2089   1.491       .  S
C861        H863   1.081       .  S
N864        N865   1.322       .  A
N864        C868   1.343   1_565  A
N865        C866   1.348   1_565  A
C866        C867   1.386       .  A
C866        H869   1.082       .  S
C867        C868   1.383       .  A
C867       C2076   1.483       .  S
C868        H870   1.082       .  S
N871        N872   1.326       .  A
N871        C875   1.348       .  A
N871       Cu879   2.089       .  S
N872        C873   1.347       .  A
N872       Cu878   2.091       .  S
C873        C874   1.382       .  A
C873        H876   1.082       .  S
C874        C875   1.383       .  A
C874       C2106   1.480       .  S
C875        H877   1.082       .  S
Cu878       N881   2.090       .  S
Cu879       N889   2.088       .  S
Cu880       N882   2.058       .  S
Cu880       N888   2.059       .  S
N881        N882   1.322       .  A
N881        C885   1.349       .  A
N882        C883   1.343       .  A
C883        C884   1.379       .  A
C883        H886   1.082       .  S
C884        C885   1.388       .  A
C884       C2489   1.480       .  S
C885        H887   1.082       .  S
N888        N889   1.322       .  A
N888        C892   1.342       .  A
N889        C890   1.349       .  A
C890        C891   1.386       .  A
C890        H893   1.082       .  S
C891        C892   1.378       .  A
C891       C2079   1.476       .  S
C892        H894   1.082       .  S
N895        N896   1.323       .  A
N895        C899   1.347       .  A
N895       Cu903   2.081       .  S
N896        C897   1.345       .  A
N896       Cu902   2.082       .  S
C897        C898   1.385       .  A
C897        H900   1.082       .  S
C898        C899   1.386       .  A
C898       C2036   1.488       .  S
C899        H901   1.082       .  S
Cu902       N905   2.081       .  S
Cu903       N913   2.081       .  S
Cu904       N906   2.073       .  S
Cu904       N912   2.073       .  S
N905        N906   1.320       .  A
N905        C909   1.348       .  A
N906        C907   1.344       .  A
C907        C908   1.387       .  A
C907        H910   1.082       .  S
C908        C909   1.390       .  A
C908       C2059   1.493       .  S
C909        H911   1.082       .  S
N912        N913   1.323       .  A
N912        C916   1.343       .  A
N913        C914   1.348       .  A
C914        C915   1.385       .  A
C914        H917   1.082       .  S
C915        C916   1.381       .  A
C915       C2046   1.478       .  S
C916        H918   1.082       .  S
N919        N920   1.322       .  A
N919        C923   1.345       .  A
N919       Cu927   2.077       .  S
N920        C921   1.345       .  A
N920       Cu926   2.075       .  S
C921        C922   1.386       .  A
C921        H924   1.082       .  S
C922        C923   1.386       .  A
C922       C2006   1.488       .  S
C923        H925   1.082       .  S
Cu926       N929   2.074       .  S
Cu927       N937   2.078       .  S
Cu928       N930   2.072       .  S
Cu928       N936   2.073       .  S
N929        N930   1.321       .  A
N929        C933   1.344       .  A
N930        C931   1.345       .  A
C931        C932   1.386       .  A
C931        H934   1.082       .  S
C932        C933   1.386       .  A
C932       C2026   1.486       .  S
C933        H935   1.082       .  S
N936        N937   1.323       .  A
N936        C940   1.343   1_565  A
N937        C938   1.347   1_565  A
C938        C939   1.384       .  A
C938        H941   1.082       .  S
C939        C940   1.382       .  A
C939       C2016   1.479       .  S
C940        H942   1.082       .  S
N943        N944   1.324       .  A
N943        C947   1.347       .  A
N943       Cu951   2.078       .  S
N944        C945   1.345       .  A
N944       Cu950   2.082       .  S
C945        C946   1.383       .  A
C945        H948   1.082       .  S
C946        C947   1.383       .  A
C946       C2049   1.479       .  S
C947        H949   1.082       .  S
Cu950       N953   2.082       .  S
Cu951       N961   2.078       .  S
Cu952       N954   2.068       .  S
Cu952       N960   2.068       .  S
N953        N954   1.322       .  A
N953        C957   1.347       .  A
N954        C955   1.344       .  A
C955        C956   1.380       .  A
C955        H958   1.082       .  S
C956        C957   1.385       .  A
C956       C2549   1.477       .  S
C957        H959   1.082       .  S
N960        N961   1.322       .  A
N960        C964   1.343       .  A
N961        C962   1.347       .  A
C962        C963   1.384       .  A
C962        H965   1.082       .  S
C963        C964   1.382       .  A
C963       C2019   1.479       .  S
C964        H966   1.082       .  S
N967        C972   1.353       .  A
N967        C971   1.351       .  A
N967        H999   1.039       .  S
N968        C975   1.352       .  A
N968        C976   1.352       .  A
N969        C974   1.354       .  A
N969        C973   1.352       .  A
N969       H1000   1.038       .  S
N970        C977   1.350       .  A
N970        C978   1.348       .  A
C971        C979   1.387       .  A
C971        C987   1.412       .  A
C972        C988   1.414       .  A
C972        C980   1.387       .  A
C973        C981   1.387       .  A
C973        C990   1.416       .  A
C974        C989   1.417       .  A
C974        C982   1.387       .  A
C975        C987   1.412       .  A
C975        C983   1.385       .  A
C976        C990   1.415       .  A
C976        C984   1.388       .  A
C977        C985   1.386       .  A
C977        C988   1.411       .  A
C978        C986   1.387       .  A
C978        C989   1.412       .  A
C979        C980   1.375       .  A
C979        H991   1.082       .  S
C980        H992   1.082       .  S
C981        C982   1.376       .  A
C981        H993   1.082       .  S
C982        H994   1.082       .  S
C983        C984   1.371       .  A
C983        H995   1.082       .  S
C984        H996   1.082       .  S
C985        C986   1.374       .  A
C985        H997   1.082       .  S
C986        H998   1.082       .  S
C987       C1989   1.487       .  S
C988       C1996   1.490       .  S
C989       C2029   1.490       .  S
C990       C2086   1.490       .  S
N1001      N1002   1.321       .  A
N1001      C1005   1.349       .  A
N1001     Cu1009   2.087       .  S
N1002      C1003   1.342       .  A
N1002     Cu1008   2.059       .  S
C1003      C1004   1.382       .  A
C1003      H1006   1.082       .  S
C1004      C1005   1.389       .  A
C1004      C1976   1.485       .  S
C1005      H1007   1.082       .  S
Cu1008     N1011   2.059       .  S
Cu1009     N1019   2.087       .  S
Cu1010     N1012   2.078       .  S
Cu1010     N1018   2.080       .  S
N1011      N1012   1.321       .  A
N1011      C1015   1.341       .  A
N1012      C1013   1.346       .  A
C1013      C1014   1.388       .  A
C1013      H1016   1.082       .  S
C1014      C1015   1.381       .  A
C1014      C1986   1.482       .  S
C1015      H1017   1.082       .  S
N1018      N1019   1.324       .  A
N1018      C1022   1.347       .  A
N1019      C1020   1.346       .  A
C1020      C1021   1.384       .  A
C1020      H1023   1.082       .  S
C1021      C1022   1.383       .  A
C1021      C2429   1.482       .  S
C1022      H1024   1.082       .  S
N1025      C1030   1.353       .  A
N1025      C1029   1.354       .  A
N1025      H1057   1.038       .  S
N1026      C1033   1.351       .  A
N1026      C1034   1.349       .  A
N1027      C1032   1.357       .  A
N1027      C1031   1.357       .  A
N1027      H1058   1.042       .  S
N1028      C1035   1.353       .  A
N1028      C1036   1.352       .  A
C1029      C1037   1.388       .  A
C1029      C1045   1.417       .  A
C1030      C1046   1.416       .  A
C1030      C1038   1.387       .  A
C1031      C1039   1.385       .  A
C1031      C1048   1.417       .  A
C1032      C1047   1.420       .  A
C1032      C1040   1.384       .  A
C1033      C1045   1.414       .  A
C1033      C1041   1.386       .  A
C1034      C1048   1.414       .  A
C1034      C1042   1.387       .  A
C1035      C1043   1.385       .  A
C1035      C1046   1.414       .  A
C1036      C1044   1.387       .  A
C1036      C1047   1.419       .  A
C1037      C1038   1.370       .  A
C1037      H1049   1.082       .  S
C1038      H1050   1.082       .  S
C1039      C1040   1.374       .  A
C1039      H1051   1.081       .  S
C1040      H1052   1.081       .  S
C1041      C1042   1.371       .  A
C1041      H1053   1.082       .  S
C1042      H1054   1.082       .  S
C1043      C1044   1.372       .  A
C1043      H1055   1.082       .  S
C1044      H1056   1.082       .  S
C1045      C1956   1.491       .  S
C1046      C1966   1.493       .  S
C1047      C2116   1.534       .  S
C1048      C1949   1.493       .  S
N1059      N1060   1.321       .  A
N1059      C1063   1.345       .  A
N1059     Cu1067   2.073       .  S
N1060      C1061   1.344       .  A
N1060     Cu1066   2.073       .  S
C1061      C1062   1.387       .  A
C1061      H1064   1.082       .  S
C1062      C1063   1.386       .  A
C1062      C1959   1.487       .  S
C1063      H1065   1.082       .  S
Cu1066     N1069   2.074       .  S
Cu1067     N1077   2.075       .  S
Cu1068     N1070   2.081       .  S
Cu1068     N1076   2.082       .  S
N1069      N1070   1.322       .  A
N1069      C1073   1.344       .  A
N1070      C1071   1.348       .  A
C1071      C1072   1.386       .  A
C1071      H1074   1.082       .  S
C1072      C1073   1.384       .  A
C1072      C1999   1.483       .  S
C1073      H1075   1.082       .  S
N1076      N1077   1.323       .  A
N1076      C1080   1.346       .  A
N1077      C1078   1.347       .  A
C1078      C1079   1.382       .  A
C1078      H1081   1.082       .  S
C1079      C1080   1.383       .  A
C1079      C2589   1.478       .  S
C1080      H1082   1.082       .  S
N1083      C1088   1.352       .  A
N1083      C1087   1.352       .  A
N1083      H1115   1.041       .  S
N1084      C1091   1.352       .  A
N1084      C1092   1.350       .  A
N1085      C1090   1.355       .  A
N1085      C1089   1.354       .  A
N1085      H1116   1.040       .  S
N1086      C1093   1.351       .  A
N1086      C1094   1.350       .  A
C1087      C1095   1.387       .  A
C1087      C1103   1.414       .  A
C1088      C1104   1.415       .  A
C1088      C1096   1.387       .  A
C1089      C1097   1.387       .  A
C1089      C1106   1.419       .  A
C1090      C1105   1.419       .  A
C1090      C1098   1.386       .  A
C1091      C1103   1.413       .  A
C1091      C1099   1.385       .  A
C1092      C1106   1.415       .  A
C1092      C1100   1.388       .  A
C1093      C1101   1.386       .  A
C1093      C1104   1.413       .  A
C1094      C1102   1.387       .  A
C1094      C1105   1.413       .  A
C1095      C1096   1.377       .  A
C1095      H1107   1.082       .  S
C1096      H1108   1.082       .  S
C1097      C1098   1.380       .  A
C1097      H1109   1.082       .  S
C1098      H1110   1.082       .  S
C1099      C1100   1.376       .  A
C1099      H1111   1.082       .  S
C1100      H1112   1.082       .  S
C1101      C1102   1.376       .  A
C1101      H1113   1.082       .  S
C1102      H1114   1.082       .  S
C1103      C1979   1.494       .  S
C1104      C1936   1.495       .  S
C1105      C2056   1.498       .  S
C1106      C1926   1.495       .  S
N1117      N1118   1.320       .  A
N1117      C1121   1.350       .  A
N1117     Cu1125   2.090       .  S
N1118      C1119   1.339       .  A
N1118     Cu1124   2.063       .  S
C1119      C1120   1.384       .  A
C1119      H1122   1.082       .  S
C1120      C1121   1.393       .  A
C1120      C1969   1.494       .  S
C1121      H1123   1.081       .  S
Cu1124     N1127   2.065       .  S
Cu1125     N1135   2.092       .  S
Cu1126     N1128   2.071       .  S
Cu1126     N1134   2.073       .  S
N1127      N1128   1.318       .  A
N1127      C1131   1.342       .  A
N1128      C1129   1.346       .  A
C1129      C1130   1.390       .  A
C1129      H1132   1.081       .  S
C1130      C1131   1.388       .  A
C1130      C1939   1.493       .  S
C1131      H1133   1.081       .  S
N1134      N1135   1.326       .  A
N1134      C1138   1.344       .  A
N1135      C1136   1.347       .  A
C1136      C1137   1.383       .  A
C1136      H1139   1.082       .  S
C1137      C1138   1.378       .  A
C1137      C2659   1.474       .  S
C1138      H1140   1.082       .  S
N1141      N1142   1.322       .  A
N1141      C1145   1.348       .  A
N1141     Cu1149   2.086       .  S
N1142      C1143   1.344       .  A
N1142     Cu1148   2.082       .  S
C1143      C1144   1.387       .  A
C1143      H1146   1.082       .  S
C1144      C1145   1.389       .  A
C1144      C1906   1.494       .  S
C1145      H1147   1.082       .  S
Cu1148     N1151   2.081       .  S
Cu1149     N1159   2.086       .  S
Cu1150     N1152   2.078       .  S
Cu1150     N1158   2.079       .  S
N1151      N1152   1.320       .  A
N1151      C1155   1.346       .  A
N1152      C1153   1.346       .  A
C1153      C1154   1.389       .  A
C1153      H1156   1.082       .  S
C1154      C1155   1.390       .  A
C1154      C1929   1.496       .  S
C1155      H1157   1.081       .  S
N1158      N1159   1.324       .  A
N1158      C1162   1.344       .  A
N1159      C1160   1.348       .  A
C1160      C1161   1.385       .  A
C1160      H1163   1.082       .  S
C1161      C1162   1.382       .  A
C1161      C1916   1.481       .  S
C1162      H1164   1.082       .  S
N1165      N1166   1.325       .  A
N1165      C1169   1.349       .  A
N1165     Cu1173   2.101       .  S
N1166      C1167   1.346       .  A
N1166     Cu1172   2.079       .  S
C1167      C1168   1.382       .  A
C1167      H1170   1.082       .  S
C1168      C1169   1.388       .  A
C1168      C1886   1.486       .  S
C1169      H1171   1.082       .  S
Cu1172     N1175   2.077       .  S
Cu1173     N1183   2.099       .  S
Cu1174     N1176   2.067       .  S
Cu1174     N1182   2.068       .  S
N1175      N1176   1.319       .  A
N1175      C1179   1.347       .  A
N1176      C1177   1.342       .  A
C1177      C1178   1.387       .  A
C1177      H1180   1.082       .  S
C1178      C1179   1.391       .  A
C1178      C1946   1.494       .  S
C1179      H1181   1.081       .  S
N1182      N1183   1.320       .  A
N1182      C1186   1.343   1_455  A
N1183      C1184   1.349   1_455  A
C1184      C1185   1.395       .  A
C1184      H1187   1.081       .  S
C1185      C1186   1.387       .  A
C1185      C1896   1.501       .  S
C1186      H1188   1.081       .  S
N1189      N1190   1.321       .  A
N1189      C1193   1.349       .  A
N1189     Cu1197   2.087       .  S
N1190      C1191   1.343       .  A
N1190     Cu1196   2.063       .  S
C1191      C1192   1.380       .  A
C1191      H1194   1.082       .  S
C1192      C1193   1.387       .  A
C1192      C1919   1.477       .  S
C1193      H1195   1.082       .  S
Cu1196     N1199   2.064       .  S
Cu1197     N1207   2.087       .  S
Cu1198     N1200   2.088       .  S
Cu1198     N1206   2.088       .  S
N1199      N1200   1.322       .  A
N1199      C1203   1.342       .  A
N1200      C1201   1.349       .  A
C1201      C1202   1.387       .  A
C1201      H1204   1.082       .  S
C1202      C1203   1.380       .  A
C1202      C2509   1.478       .  S
C1203      H1205   1.082       .  S
N1206      N1207   1.323       .  A
N1206      C1210   1.346       .  A
N1207      C1208   1.346       .  A
C1208      C1209   1.389       .  A
C1208      H1211   1.081       .  S
C1209      C1210   1.390       .  A
C1209      C1899   1.499       .  S
C1210      H1212   1.081       .  S
O1213     Cu1221   2.014       .  S
O1213      C1223   1.279       .  A
O1214     Cu1221   2.019       .  S
O1214      C1224   1.278       .  A
O1215     Cu1221   2.032       .  S
O1215      C1225   1.280       .  A
O1216     Cu1221   2.016       .  S
O1216      C1226   1.277       .  A
O1217     Cu1222   2.022       .  S
O1217      C1226   1.279       .  A
O1218     Cu1222   2.007       .  S
O1218      C1225   1.276       .  A
O1219     Cu1222   2.008       .  S
O1219      C1224   1.277       .  A
O1220     Cu1222   2.000       .  S
O1220      C1223   1.276       .  A
Cu1221    Cu1222   2.368       .  S
C1223      C1866   1.488       .  S
C1224      C2039   1.500       .  S
C1225      C2099   1.482       .  S
C1226      C1876   1.478       .  S
O1227     Cu1235   2.009       .  S
O1227      C1237   1.277       .  A
O1228     Cu1235   2.010       .  S
O1228      C1238   1.276       .  A
O1229     Cu1235   2.024       .  S
O1229      C1239   1.280       .  A
O1230     Cu1235   2.037       .  S
O1230      C1240   1.282       .  A
O1231     Cu1236   2.009       .  S
O1231      C1240   1.277       .  A
O1232     Cu1236   2.016       .  S
O1232      C1239   1.278       .  A
O1233     Cu1236   2.032       .  S
O1233      C1238   1.280       .  A
O1234     Cu1236   2.025       .  S
O1234      C1237   1.280       .  A
Cu1235    Cu1236   2.364       .  S
C1237      C1856   1.485       .  S
C1238      C1909   1.509       .  S
C1239      C2069   1.492       .  S
C1240      C1846   1.492       .  S
N1241      N1242   1.323       .  A
N1241      C1245   1.346       .  A
N1241     Cu1249   2.073       .  S
N1242      C1243   1.343       .  A
N1242     Cu1248   2.076       .  S
C1243      C1244   1.383       .  A
C1243      H1246   1.082       .  S
C1244      C1245   1.383       .  A
C1244      C1869   1.480       .  S
C1245      H1247   1.082       .  S
Cu1248     N1251   2.075       .  S
Cu1249     N1259   2.073       .  S
Cu1250     N1252   2.082       .  S
Cu1250     N1258   2.083       .  S
N1251      N1252   1.321       .  A
N1251      C1255   1.347       .  A
N1252      C1253   1.345       .  A
C1253      C1254   1.387       .  A
C1253      H1256   1.082       .  S
C1254      C1255   1.387       .  A
C1254      C1836   1.489       .  S
C1255      H1257   1.082       .  S
N1258      N1259   1.323       .  A
N1258      C1262   1.346   1_455  A
N1259      C1260   1.346   1_455  A
C1260      C1261   1.382       .  A
C1260      H1263   1.082       .  S
C1261      C1262   1.384       .  A
C1261      C1829   1.479       .  S
C1262      H1264   1.082       .  S
N1265      N1266   1.324       .  A
N1265      C1269   1.349       .  A
N1265     Cu1273   2.096       .  S
N1266      C1267   1.346       .  A
N1266     Cu1272   2.083       .  S
C1267      C1268   1.385       .  A
C1267      H1270   1.082       .  S
C1268      C1269   1.388       .  A
C1268      C1859   1.489       .  S
C1269      H1271   1.082       .  S
Cu1272     N1275   2.082       .  S
Cu1273     N1283   2.096       .  S
Cu1274     N1276   2.069       .  S
Cu1274     N1282   2.070       .  S
N1275      N1276   1.321       .  A
N1275      C1279   1.347       .  A
N1276      C1277   1.343       .  A
C1277      C1278   1.384       .  A
C1277      H1280   1.082       .  S
C1278      C1279   1.389       .  A
C1278      C1816   1.488       .  S
C1279      H1281   1.082       .  S
N1282      N1283   1.323       .  A
N1282      C1286   1.345   1_565  A
N1283      C1284   1.349       .  A
C1284      C1285   1.386   1_565  A
C1284      H1287   1.082       .  S
C1285      C1286   1.381       .  A
C1285      C1806   1.481       .  S
C1286      H1288   1.082       .  S
N1289      N1290   1.323       .  A
N1289      C1293   1.351       .  A
N1289     Cu1297   2.102       .  S
N1290      C1291   1.342       .  A
N1290     Cu1296   2.058       .  S
C1291      C1292   1.376       .  A
C1291      H1294   1.082       .  S
C1292      C1293   1.389       .  A
C1292      C1826   1.478       .  S
C1293      H1295   1.082       .  S
Cu1296     N1299   2.058       .  S
Cu1297     N1307   2.103       .  S
Cu1298     N1300   2.081       .  S
Cu1298     N1306   2.082       .  S
N1299      N1300   1.320       .  A
N1299      C1303   1.343       .  A
N1300      C1301   1.348       .  A
C1301      C1302   1.386       .  A
C1301      H1304   1.082       .  S
C1302      C1303   1.380       .  A
C1302      C2269   1.478       .  S
C1303      H1305   1.082       .  S
N1306      N1307   1.325       .  A
N1306      C1310   1.345       .  A
N1307      C1308   1.351       .  A
C1308      C1309   1.388       .  A
C1308      H1311   1.082       .  S
C1309      C1310   1.381       .  A
C1309      C1809   1.486       .  S
C1310      H1312   1.082       .  S
N1313      N1314   1.322       .  A
N1313      C1317   1.347       .  A
N1313     Cu1321   2.079       .  S
N1314      C1315   1.345       .  A
N1314     Cu1320   2.078       .  S
C1315      C1316   1.383       .  A
C1315      H1318   1.082       .  S
C1316      C1317   1.384       .  A
C1316      C1879   1.479       .  S
C1317      H1319   1.082       .  S
Cu1320     N1323   2.078       .  S
Cu1321     N1331   2.079       .  S
Cu1322     N1324   2.083       .  S
Cu1322     N1330   2.082       .  S
N1323      N1324   1.322       .  A
N1323      C1327   1.346       .  A
N1324      C1325   1.347       .  A
C1325      C1326   1.386       .  A
C1325      H1328   1.082       .  S
C1326      C1327   1.385       .  A
C1326      C1796   1.486       .  S
C1327      H1329   1.082       .  S
N1330      N1331   1.321       .  A
N1330      C1334   1.345       .  A
N1331      C1332   1.345       .  A
C1332      C1333   1.389       .  A
C1332      H1335   1.081       .  S
C1333      C1334   1.389       .  A
C1333      C1786   1.496       .  S
C1334      H1336   1.081       .  S
N1337      N1338   1.324       .  A
N1337      C1341   1.354       .  A
N1337     Cu1345   2.115       .  S
N1338      C1339   1.345       .  A
N1338     Cu1344   2.078       .  S
C1339      C1340   1.382       .  A
C1339      H1342   1.082       .  S
C1340      C1341   1.393       .  A
C1340      C1756   1.495       .  S
C1341      H1343   1.082       .  S
Cu1344     N1347   2.078       .  S
Cu1345     N1355   2.115   1_565  S
Cu1346     N1348   2.073       .  S
Cu1346     N1354   2.074   1_565  S
N1347      N1348   1.320       .  A
N1347      C1351   1.346       .  A
N1348      C1349   1.346       .  A
C1349      C1350   1.387       .  A
C1349      H1352   1.082       .  S
C1350      C1351   1.388       .  A
C1350      C1779   1.490       .  S
C1351      H1353   1.082       .  S
N1354      N1355   1.325       .  A
N1354      C1358   1.344       .  A
N1355      C1356   1.353       .  A
C1356      C1357   1.391       .  A
C1356      H1359   1.082       .  S
C1357      C1358   1.379       .  A
C1357      C1769   1.487       .  S
C1358      H1360   1.082       .  S
N1361      N1362   1.321       .  A
N1361      C1365   1.348       .  A
N1361     Cu1369   2.087       .  S
N1362      C1363   1.344       .  A
N1362     Cu1368   2.075       .  S
C1363      C1364   1.387       .  A
C1363      H1366   1.082       .  S
C1364      C1365   1.391       .  A
C1364      C1789   1.495       .  S
C1365      H1367   1.082       .  S
Cu1368     N1371   2.076       .  S
Cu1369     N1379   2.088       .  S
Cu1370     N1372   2.095       .  S
Cu1370     N1378   2.096       .  S
N1371      N1372   1.323       .  A
N1371      C1375   1.346       .  A
N1372      C1373   1.349       .  A
C1373      C1374   1.387       .  A
C1373      H1376   1.082       .  S
C1374      C1375   1.383       .  A
C1374      C2159   1.484       .  S
C1375      H1377   1.082       .  S
N1378      N1379   1.324       .  A
N1378      C1382   1.348       .  A
N1379      C1380   1.348       .  A
C1380      C1381   1.384       .  A
C1380      H1383   1.082       .  S
C1381      C1382   1.387       .  A
C1381      C1766   1.488       .  S
C1382      H1384   1.082       .  S
N1385      N1386   1.321       .  A
N1385      C1389   1.347       .  A
N1385     Cu1393   2.080       .  S
N1386      C1387   1.341       .  A
N1386     Cu1392   2.059       .  S
C1387      C1388   1.382       .  A
C1387      H1390   1.082       .  S
C1388      C1389   1.388       .  A
C1388      C1746   1.483       .  S
C1389      H1391   1.082       .  S
Cu1392     N1395   2.060       .  S
Cu1393     N1403   2.082   1_554  S
Cu1394     N1396   2.083       .  S
Cu1394     N1402   2.084   1_554  S
N1395      N1396   1.321       .  A
N1395      C1399   1.342       .  A
N1396      C1397   1.348       .  A
C1397      C1398   1.388       .  A
C1397      H1400   1.082       .  S
C1398      C1399   1.381       .  A
C1398      C1736   1.481       .  S
C1399      H1401   1.082       .  S
N1402      N1403   1.323       .  A
N1402      C1406   1.347       .  A
N1403      C1404   1.346       .  A
C1404      C1405   1.385       .  A
C1404      H1407   1.082       .  S
C1405      C1406   1.386       .  A
C1405      C2126   1.487       .  S
C1406      H1408   1.082       .  S
N1409      C1414   1.351       .  A
N1409      C1413   1.351       .  A
N1409      H1441   1.041       .  S
N1410      C1417   1.351       .  A
N1410      C1418   1.349       .  A
N1411      C1416   1.354       .  A
N1411      C1415   1.354       .  A
N1411      H1442   1.040       .  S
N1412      C1419   1.350       .  A
N1412      C1420   1.349       .  A
C1413      C1421   1.387       .  A
C1413      C1429   1.412       .  A
C1414      C1430   1.412       .  A
C1414      C1422   1.387       .  A
C1415      C1423   1.387       .  A
C1415      C1432   1.418       .  A
C1416      C1431   1.418       .  A
C1416      C1424   1.387       .  A
C1417      C1429   1.411       .  A
C1417      C1425   1.385       .  A
C1418      C1432   1.414       .  A
C1418      C1426   1.388       .  A
C1419      C1427   1.385       .  A
C1419      C1430   1.410       .  A
C1420      C1428   1.388       .  A
C1420      C1431   1.413       .  A
C1421      C1422   1.376       .  A
C1421      H1433   1.082       .  S
C1422      H1434   1.082       .  S
C1423      C1424   1.382       .  A
C1423      H1435   1.082       .  S
C1424      H1436   1.082       .  S
C1425      C1426   1.373       .  A
C1425      H1437   1.082       .  S
C1426      H1438   1.082       .  S
C1427      C1428   1.374       .  A
C1427      H1439   1.082       .  S
C1428      H1440   1.082       .  S
C1429      C1729   1.491       .  S
C1430      C1749   1.488       .  S
C1431      C1716   1.493       .  S
C1432      C1839   1.492       .  S
N1443      N1444   1.323       .  A
N1443      C1447   1.350       .  A
N1443     Cu1451   2.093       .  S
N1444      C1445   1.343       .  A
N1444     Cu1450   2.076       .  S
C1445      C1446   1.383       .  A
C1445      H1448   1.082       .  S
C1446      C1447   1.389       .  A
C1446      C1696   1.487       .  S
C1447      H1449   1.082       .  S
Cu1450     N1453   2.075       .  S
Cu1451     N1461   2.093   1_554  S
Cu1452     N1454   2.073       .  S
Cu1452     N1460   2.074   1_554  S
N1453      N1454   1.320       .  A
N1453      C1457   1.345       .  A
N1454      C1455   1.346       .  A
C1455      C1456   1.388       .  A
C1455      H1458   1.082       .  S
C1456      C1457   1.388       .  A
C1456      C1706   1.492       .  S
C1457      H1459   1.082       .  S
N1460      N1461   1.324       .  A
N1460      C1464   1.344       .  A
N1461      C1462   1.349       .  A
C1462      C1463   1.387       .  A
C1462      H1465   1.082       .  S
C1463      C1464   1.382       .  A
C1463      C2219   1.484       .  S
C1464      H1466   1.082       .  S
N1467      C1472   1.350       .  A
N1467      C1471   1.354       .  A
N1467      H1499   1.039       .  S
N1468      C1475   1.351       .  A
N1468      C1476   1.348       .  A
N1469      C1474   1.355       .  A
N1469      C1473   1.354       .  A
N1469      H1500   1.038       .  S
N1470      C1477   1.353       .  A
N1470      C1478   1.353       .  A
C1471      C1479   1.386       .  A
C1471      C1487   1.415       .  A
C1472      C1488   1.415       .  A
C1472      C1480   1.388       .  A
C1473      C1481   1.387       .  A
C1473      C1490   1.420       .  A
C1474      C1489   1.421       .  A
C1474      C1482   1.387       .  A
C1475      C1487   1.411       .  A
C1475      C1483   1.385       .  A
C1476      C1490   1.413       .  A
C1476      C1484   1.387       .  A
C1477      C1485   1.386       .  A
C1477      C1488   1.415       .  A
C1478      C1486   1.387       .  A
C1478      C1489   1.418       .  A
C1479      C1480   1.378       .  A
C1479      H1491   1.082       .  S
C1480      H1492   1.082       .  S
C1481      C1482   1.377       .  A
C1481      H1493   1.082       .  S
C1482      H1494   1.082       .  S
C1483      C1484   1.373       .  A
C1483      H1495   1.082       .  S
C1484      H1496   1.082       .  S
C1485      C1486   1.371       .  A
C1485      H1497   1.082       .  S
C1486      H1498   1.082       .  S
C1487      C1699   1.494       .  S
C1488      C1739   1.489       .  S
C1489      C1776   1.499       .  S
C1490      C1819   1.492       .  S
N1501      C1506   1.354       .  A
N1501      C1505   1.352       .  A
N1501      H1533   1.036       .  S
N1502      C1509   1.354       .  A
N1502      C1510   1.353       .  A
N1503      C1508   1.354       .  A
N1503      C1507   1.354       .  A
N1503      H1534   1.033       .  S
N1504      C1511   1.352       .  A
N1504      C1512   1.351       .  A
C1505      C1513   1.387       .  A
C1505      C1521   1.414       .  A
C1506      C1522   1.417       .  A
C1506      C1514   1.387       .  A
C1507      C1515   1.387       .  A
C1507      C1524   1.420       .  A
C1508      C1523   1.420       .  A
C1508      C1516   1.387       .  A
C1509      C1521   1.415       .  A
C1509      C1517   1.384       .  A
C1510      C1524   1.422       .  A
C1510      C1518   1.389       .  A
C1511      C1519   1.386       .  A
C1511      C1522   1.416       .  A
C1512      C1520   1.386       .  A
C1512      C1523   1.416       .  A
C1513      C1514   1.374       .  A
C1513      H1525   1.081       .  S
C1514      H1526   1.082       .  S
C1515      C1516   1.376       .  A
C1515      H1527   1.082       .  S
C1516      H1528   1.082       .  S
C1517      C1518   1.370       .  A
C1517      H1529   1.082       .  S
C1518      H1530   1.082       .  S
C1519      C1520   1.374       .  A
C1519      H1531   1.082       .  S
C1520      H1532   1.082       .  S
C1521      C1709   1.493       .  S
C1522      C1689   1.496       .  S
C1523      C1799   1.493       .  S
C1524      C1676   1.493       .  S
N1535      N1536   1.321       .  A
N1535      C1539   1.349       .  A
N1535     Cu1543   2.082       .  S
N1536      C1537   1.340       .  A
N1536     Cu1542   2.064       .  S
C1537      C1538   1.383       .  A
C1537      H1540   1.082       .  S
C1538      C1539   1.390       .  A
C1538      C1726   1.487       .  S
C1539      H1541   1.082       .  S
Cu1542     N1545   2.064       .  S
Cu1543     N1553   2.083   1_554  S
Cu1544     N1546   2.083       .  S
Cu1544     N1552   2.085   1_554  S
N1545      N1546   1.319       .  A
N1545      C1549   1.343       .  A
N1546      C1547   1.348       .  A
C1547      C1548   1.390       .  A
C1547      H1550   1.082       .  S
C1548      C1549   1.385       .  A
C1548      C1686   1.491       .  S
C1549      H1551   1.082       .  S
N1552      N1553   1.326       .  A
N1552      C1556   1.346       .  A
N1553      C1554   1.347       .  A
C1554      C1555   1.381       .  A
C1554      H1557   1.082       .  S
C1555      C1556   1.382       .  A
C1555      C2319   1.477       .  S
C1556      H1558   1.082       .  S
N1559      N1560   1.322       .  A
N1559      C1563   1.352       .  A
N1559     Cu1567   2.105       .  S
N1560      C1561   1.343       .  A
N1560     Cu1566   2.068       .  S
C1561      C1562   1.383       .  A
C1561      H1564   1.082       .  S
C1562      C1563   1.393       .  A
C1562      C1849   1.495       .  S
C1563      H1565   1.082       .  S
Cu1566     N1569   2.065       .  S
Cu1567     N1577   2.106       .  S
Cu1568     N1570   2.076       .  S
Cu1568     N1576   2.078       .  S
N1569      N1570   1.319       .  A
N1569      C1573   1.343       .  A
N1570      C1571   1.346       .  A
C1571      C1572   1.389       .  A
C1571      H1574   1.082       .  S
C1572      C1573   1.386       .  A
C1572      C1679   1.489       .  S
C1573      H1575   1.081       .  S
N1576      N1577   1.325       .  A
N1576      C1580   1.344       .  A
N1577      C1578   1.351       .  A
C1578      C1579   1.390       .  A
C1578      H1581   1.082       .  S
C1579      C1580   1.383       .  A
C1579      C1669   1.490       .  S
C1580      H1582   1.082       .  S
N1583      N1584   1.324       .  A
N1583      C1587   1.348       .  A
N1583     Cu1591   2.088       .  S
N1584      C1585   1.346       .  A
N1584     Cu1590   2.083       .  S
C1585      C1586   1.384       .  A
C1585      H1588   1.082       .  S
C1586      C1587   1.386       .  A
C1586      C1646   1.487       .  S
C1587      H1589   1.082       .  S
Cu1590     N1593   2.082       .  S
Cu1591     N1601   2.087       .  S
Cu1592     N1594   2.068       .  S
Cu1592     N1600   2.068       .  S
N1593      N1594   1.321       .  A
N1593      C1597   1.348       .  A
N1594      C1595   1.344       .  A
C1595      C1596   1.384       .  A
C1595      H1598   1.082       .  S
C1596      C1597   1.388       .  A
C1596      C1719   1.486       .  S
C1597      H1599   1.082       .  S
N1600      N1601   1.322       .  A
N1600      C1604   1.343   1_455  A
N1601      C1602   1.349   1_455  A
C1602      C1603   1.388       .  A
C1602      H1605   1.082       .  S
C1603      C1604   1.382       .  A
C1603      C1656   1.485       .  S
C1604      H1606   1.082       .  S
N1607      N1608   1.323       .  A
N1607      C1611   1.349       .  A
N1607     Cu1615   2.083       .  S
N1608      C1609   1.346       .  A
N1608     Cu1614   2.084       .  S
C1609      C1610   1.384       .  A
C1609      H1612   1.082       .  S
C1610      C1611   1.385       .  A
C1610      C1666   1.484       .  S
C1611      H1613   1.082       .  S
Cu1614     N1617   2.084       .  S
Cu1615     N1625   2.083       .  S
Cu1616     N1618   2.083       .  S
Cu1616     N1624   2.083       .  S
N1617      N1618   1.323       .  A
N1617      C1621   1.347       .  A
N1618      C1619   1.348       .  A
C1619      C1620   1.384       .  A
C1619      H1622   1.082       .  S
C1620      C1621   1.384       .  A
C1620      C2189   1.483       .  S
C1621      H1623   1.082       .  S
N1624      N1625   1.324       .  A
N1624      C1628   1.346       .  A
N1625      C1626   1.347       .  A
C1626      C1627   1.383       .  A
C1626      H1629   1.082       .  S
C1627      C1628   1.383       .  A
C1627      C1659   1.480       .  S
C1628      H1630   1.082       .  S
O1631     Cu1639   2.024       .  S
O1631      C1641   1.279       .  A
O1632     Cu1639   2.032       .  S
O1632      C1642   1.280       .  A
O1633     Cu1639   2.002       .  S
O1633      C1643   1.275       .  A
O1634     Cu1639   2.018       .  S
O1634      C1644   1.278       .  A
O1635     Cu1640   2.016       .  S
O1635      C1644   1.279       .  A
O1636     Cu1640   2.025       .  S
O1636      C1643   1.279       .  A
O1637     Cu1640   2.020       .  S
O1637      C1642   1.278       .  A
O1638     Cu1640   2.027       .  S
O1638      C1641   1.280       .  A
Cu1639    Cu1640   2.363       .  S
C1641      C1759   1.507       .  S
C1642      C1889   1.486       .  S
C1643      C2009   1.503       .  S
C1644      C1649   1.485       .  S
C1645      C1646   1.412       .  A
C1645      C1650   1.410       .  A
C1645     Br1652   1.931       .  S
C1646      C1647   1.412       .  A
C1647      C1648   1.411       .  A
C1647     Br1654   1.931       .  S
C1648      C1649   1.413       .  A
C1648     Br1653   1.931       .  S
C1649      C1650   1.411       .  A
C1650     Br1651   1.932       .  S
C1655      C1656   1.414       .  A
C1655      C1660   1.408       .  A
C1655     Br1662   1.932       .  S
C1656      C1657   1.413       .  A
C1657      C1658   1.411       .  A
C1657     Br1664   1.930       .  S
C1658      C1659   1.409       .  A
C1658     Br1663   1.930       .  S
C1659      C1660   1.408       .  A
C1660     Br1661   1.932       .  S
C1665      C1666   1.409       .  A
C1665      C1670   1.409       .  A
C1665     Br1672   1.932       .  S
C1666      C1667   1.411       .  A
C1667      C1668   1.413       .  A
C1667     Br1674   1.929       .  S
C1668      C1669   1.413       .  A
C1668     Br1673   1.929       .  S
C1669      C1670   1.414       .  A
C1670     Br1671   1.931       .  S
C1675      C1676   1.408       .  A
C1675      C1680   1.406       .  A
C1675     Br1682   1.934       .  S
C1676      C1677   1.409       .  A
C1677      C1678   1.410       .  A
C1677     Br1684   1.930       .  S
C1678      C1679   1.416       .  A
C1678     Br1683   1.931       .  S
C1679      C1680   1.417       .  A
C1680     Br1681   1.933       .  S
C1685      C1686   1.416       .  A
C1685      C1690   1.410       .  A
C1685     Br1692   1.931       .  S
C1686      C1687   1.416       .  A
C1687      C1688   1.408       .  A
C1687     Br1694   1.933       .  S
C1688      C1689   1.410       .  A
C1688     Br1693   1.933       .  S
C1689      C1690   1.410       .  A
C1690     Br1691   1.932       .  S
C1695      C1696   1.415       .  A
C1695      C1700   1.409       .  A
C1695     Br1702   1.932       .  S
C1696      C1697   1.412       .  A
C1697      C1698   1.410       .  A
C1697     Br1704   1.928       .  S
C1698      C1699   1.410       .  A
C1698     Br1703   1.931       .  S
C1699      C1700   1.410       .  A
C1700     Br1701   1.931       .  S
C1705      C1706   1.418       .  A
C1705      C1710   1.410       .  A
C1705     Br1712   1.930       .  S
C1706      C1707   1.417       .  A
C1707      C1708   1.408       .  A
C1707     Br1714   1.933       .  S
C1708      C1709   1.409       .  A
C1708     Br1713   1.933       .  S
C1709      C1710   1.407       .  A
C1710     Br1711   1.930       .  S
C1715      C1716   1.408       .  A
C1715      C1720   1.409       .  A
C1715     Br1722   1.929       .  S
C1716      C1717   1.411       .  A
C1717      C1718   1.408       .  A
C1717     Br1724   1.932       .  S
C1718      C1719   1.413       .  A
C1718     Br1723   1.931       .  S
C1719      C1720   1.415       .  A
C1720     Br1721   1.931       .  S
C1725      C1726   1.415       .  A
C1725      C1730   1.410       .  A
C1725     Br1732   1.930       .  S
C1726      C1727   1.416       .  A
C1727      C1728   1.405       .  A
C1727     Br1734   1.934       .  S
C1728      C1729   1.409       .  A
C1728     Br1733   1.933       .  S
C1729      C1730   1.410       .  A
C1730     Br1731   1.931       .  S
C1735      C1736   1.412       .  A
C1735      C1740   1.407       .  A
C1735     Br1742   1.930       .  S
C1736      C1737   1.414       .  A
C1737      C1738   1.407       .  A
C1737     Br1744   1.931       .  S
C1738      C1739   1.408       .  A
C1738     Br1743   1.931       .  S
C1739      C1740   1.410       .  A
C1740     Br1741   1.931       .  S
C1745      C1746   1.413       .  A
C1745      C1750   1.408       .  A
C1745     Br1752   1.930       .  S
C1746      C1747   1.415       .  A
C1747      C1748   1.407       .  A
C1747     Br1754   1.933       .  S
C1748      C1749   1.408       .  A
C1748     Br1753   1.932       .  S
C1749      C1750   1.408       .  A
C1750     Br1751   1.930       .  S
C1755      C1756   1.410       .  A
C1755      C1760   1.416       .  A
C1755     Br1762   1.930       .  S
C1756      C1757   1.412       .  A
C1757      C1758   1.413       .  A
C1757     Br1764   1.934       .  S
C1758      C1759   1.421       .  A
C1758     Br1763   1.931       .  S
C1759      C1760   1.421       .  A
C1760     Br1761   1.933       .  S
C1765      C1766   1.412       .  A
C1765      C1770   1.413       .  A
C1765     Br1772   1.929       .  S
C1766      C1767   1.412       .  A
C1767      C1768   1.411       .  A
C1767     Br1774   1.930       .  S
C1768      C1769   1.410       .  A
C1768     Br1773   1.929       .  S
C1769      C1770   1.411       .  A
C1770     Br1771   1.929       .  S
C1775      C1776   1.412       .  A
C1775      C1780   1.410       .  A
C1775     Br1782   1.932       .  S
C1776      C1777   1.411       .  A
C1777      C1778   1.410       .  A
C1777     Br1784   1.931       .  S
C1778      C1779   1.414       .  A
C1778     Br1783   1.931       .  S
C1779      C1780   1.414       .  A
C1780     Br1781   1.931       .  S
C1785      C1786   1.416       .  A
C1785      C1790   1.410       .  A
C1785     Br1792   1.935       .  S
C1786      C1787   1.417       .  A
C1787      C1788   1.412       .  A
C1787     Br1794   1.934       .  S
C1788      C1789   1.415       .  A
C1788     Br1793   1.933       .  S
C1789      C1790   1.415       .  A
C1790     Br1791   1.934       .  S
C1795      C1796   1.415       .  A
C1795      C1800   1.409       .  A
C1795     Br1802   1.931       .  S
C1796      C1797   1.414       .  A
C1797      C1798   1.409       .  A
C1797     Br1804   1.930       .  S
C1798      C1799   1.408       .  A
C1798     Br1803   1.929       .  S
C1799      C1800   1.409       .  A
C1800     Br1801   1.931       .  S
C1805      C1806   1.409       .  A
C1805      C1810   1.410       .  A
C1805     Br1812   1.929   1_545  S
C1806      C1807   1.409       .  A
C1807      C1808   1.411       .  A
C1807     Br1814   1.929       .  S
C1808      C1809   1.412       .  A
C1808     Br1813   1.929       .  S
C1809      C1810   1.412       .  A
C1810     Br1811   1.929       .  S
C1815      C1816   1.415       .  A
C1815      C1820   1.407       .  A
C1815     Br1822   1.932       .  S
C1816      C1817   1.416       .  A
C1817      C1818   1.408       .  A
C1817     Br1824   1.931       .  S
C1818      C1819   1.408       .  A
C1818     Br1823   1.931       .  S
C1819      C1820   1.411       .  A
C1820     Br1821   1.934       .  S
C1825      C1826   1.409       .  A
C1825      C1830   1.408       .  A
C1825     Br1832   1.929       .  S
C1826      C1827   1.410       .  A
C1827      C1828   1.409       .  A
C1827     Br1834   1.929       .  S
C1828      C1829   1.409       .  A
C1828     Br1833   1.929       .  S
C1829      C1830   1.410       .  A
C1830     Br1831   1.930       .  S
C1835      C1836   1.415       .  A
C1835      C1840   1.409       .  A
C1835     Br1842   1.931       .  S
C1836      C1837   1.416       .  A
C1837      C1838   1.409       .  A
C1837     Br1844   1.932       .  S
C1838      C1839   1.410       .  A
C1838     Br1843   1.932       .  S
C1839      C1840   1.407       .  A
C1840     Br1841   1.930       .  S
C1845      C1846   1.411       .  A
C1845      C1850   1.411       .  A
C1845     Br1852   1.925       .  S
C1846      C1847   1.414       .  A
C1847      C1848   1.414       .  A
C1847     Br1854   1.933       .  S
C1848      C1849   1.414       .  A
C1848     Br1853   1.930       .  S
C1849      C1850   1.416       .  A
C1850     Br1851   1.934       .  S
C1855      C1856   1.411       .  A
C1855      C1860   1.412       .  A
C1855     Br1862   1.931       .  S
C1856      C1857   1.412       .  A
C1857      C1858   1.411       .  A
C1857     Br1864   1.933       .  S
C1858      C1859   1.414       .  A
C1858     Br1863   1.932       .  S
C1859      C1860   1.413       .  A
C1860     Br1861   1.930       .  S
C1865      C1866   1.418       .  A
C1865      C1870   1.406       .  A
C1865     Br1872   1.936       .  S
C1866      C1867   1.418       .  A
C1867      C1868   1.410       .  A
C1867     Br1874   1.935       .  S
C1868      C1869   1.409       .  A
C1868     Br1873   1.932       .  S
C1869      C1870   1.408       .  A
C1870     Br1871   1.935       .  S
C1875      C1876   1.409       .  A
C1875      C1880   1.410       .  A
C1875     Br1882   1.925       .  S
C1876      C1877   1.408       .  A
C1877      C1878   1.408       .  A
C1877     Br1884   1.927       .  S
C1878      C1879   1.410       .  A
C1878     Br1883   1.929       .  S
C1879      C1880   1.409       .  A
C1880     Br1881   1.929       .  S
C1885      C1886   1.412       .  A
C1885      C1890   1.412       .  A
C1885     Br1892   1.930       .  S
C1886      C1887   1.411       .  A
C1887      C1888   1.410       .  A
C1887     Br1894   1.931       .  S
C1888      C1889   1.410       .  A
C1888     Br1893   1.923       .  S
C1889      C1890   1.410       .  A
C1890     Br1891   1.929       .  S
C1895      C1896   1.418       .  A
C1895      C1900   1.410       .  A
C1895     Br1902   1.934       .  S
C1896      C1897   1.417       .  A
C1897      C1898   1.413       .  A
C1897     Br1904   1.932       .  S
C1898      C1899   1.416       .  A
C1898     Br1903   1.933       .  S
C1899      C1900   1.416       .  A
C1900     Br1901   1.935       .  S
C1905      C1906   1.410       .  A
C1905      C1910   1.411       .  A
C1905     Br1912   1.937       .  S
C1906      C1907   1.412       .  A
C1907      C1908   1.415       .  A
C1907     Br1914   1.935       .  S
C1908      C1909   1.424       .  A
C1908     Br1913   1.933       .  S
C1909      C1910   1.425       .  A
C1910     Br1911   1.935       .  S
C1915      C1916   1.411       .  A
C1915      C1920   1.409       .  A
C1915     Br1922   1.929       .  S
C1916      C1917   1.412       .  A
C1917      C1918   1.409       .  A
C1917     Br1924   1.930       .  S
C1918      C1919   1.408       .  A
C1918     Br1923   1.929       .  S
C1919      C1920   1.409       .  A
C1920     Br1921   1.931       .  S
C1925      C1926   1.408       .  A
C1925      C1930   1.409       .  A
C1925     Br1932   1.934       .  S
C1926      C1927   1.408       .  A
C1927      C1928   1.412       .  A
C1927     Br1934   1.930       .  S
C1928      C1929   1.419       .  A
C1928     Br1933   1.932       .  S
C1929      C1930   1.419       .  A
C1930     Br1931   1.932       .  S
C1935      C1936   1.410       .  A
C1935      C1940   1.409       .  A
C1935     Br1942   1.933       .  S
C1936      C1937   1.410       .  A
C1937      C1938   1.407       .  A
C1937     Br1944   1.933       .  S
C1938      C1939   1.418       .  A
C1938     Br1943   1.933       .  S
C1939      C1940   1.418       .  A
C1940     Br1941   1.932       .  S
C1945      C1946   1.419       .  A
C1945      C1950   1.409       .  A
C1945     Br1952   1.932       .  S
C1946      C1947   1.418       .  A
C1947      C1948   1.409       .  A
C1947     Br1954   1.933       .  S
C1948      C1949   1.407       .  A
C1948     Br1953   1.930       .  S
C1949      C1950   1.409       .  A
C1950     Br1951   1.935       .  S
C1955      C1956   1.408       .  A
C1955      C1960   1.408       .  A
C1955     Br1962   1.931       .  S
C1956      C1957   1.408       .  A
C1957      C1958   1.407       .  A
C1957     Br1964   1.932       .  S
C1958      C1959   1.416       .  A
C1958     Br1963   1.932       .  S
C1959      C1960   1.416       .  A
C1960     Br1961   1.931       .  S
C1965      C1966   1.408       .  A
C1965      C1970   1.413       .  A
C1965     Br1972   1.930       .  S
C1966      C1967   1.408       .  A
C1967      C1968   1.404       .  A
C1967     Br1974   1.934       .  S
C1968      C1969   1.418       .  A
C1968     Br1973   1.935       .  S
C1969      C1970   1.418       .  A
C1970     Br1971   1.928       .  S
C1975      C1976   1.414       .  A
C1975      C1980   1.408       .  A
C1975     Br1982   1.933       .  S
C1976      C1977   1.411       .  A
C1977      C1978   1.410       .  A
C1977     Br1984   1.930       .  S
C1978      C1979   1.411       .  A
C1978     Br1983   1.930       .  S
C1979      C1980   1.410       .  A
C1980     Br1981   1.931       .  S
C1985      C1986   1.413       .  A
C1985      C1990   1.406       .  A
C1985     Br1992   1.931       .  S
C1986      C1987   1.416       .  A
C1987      C1988   1.407       .  A
C1987     Br1994   1.932       .  S
C1988      C1989   1.408       .  A
C1988     Br1993   1.931       .  S
C1989      C1990   1.408       .  A
C1990     Br1991   1.932       .  S
C1995      C1996   1.409       .  A
C1995      C2000   1.410       .  A
C1995     Br2002   1.930       .  S
C1996      C1997   1.409       .  A
C1997      C1998   1.406       .  A
C1997     Br2004   1.932       .  S
C1998      C1999   1.413       .  A
C1998     Br2003   1.931       .  S
C1999      C2000   1.413       .  A
C2000     Br2001   1.929       .  S
C2005      C2006   1.410       .  A
C2005      C2010   1.411       .  A
C2005     Br2012   1.935       .  S
C2006      C2007   1.410       .  A
C2007      C2008   1.410       .  A
C2007     Br2014   1.937       .  S
C2008      C2009   1.425       .  A
C2008     Br2013   1.938       .  S
C2009      C2010   1.423       .  A
C2010     Br2011   1.933       .  S
C2015      C2016   1.410       .  A
C2015      C2020   1.406       .  A
C2015     Br2022   1.931       .  S
C2016      C2017   1.410       .  A
C2017      C2018   1.410       .  A
C2017     Br2024   1.930       .  S
C2018      C2019   1.411       .  A
C2018     Br2023   1.930       .  S
C2019      C2020   1.410       .  A
C2020     Br2021   1.932       .  S
C2025      C2026   1.416       .  A
C2025      C2030   1.409       .  A
C2025     Br2032   1.931       .  S
C2026      C2027   1.415       .  A
C2027      C2028   1.406       .  A
C2027     Br2034   1.933       .  S
C2028      C2029   1.409       .  A
C2028     Br2033   1.933       .  S
C2029      C2030   1.407       .  A
C2030     Br2031   1.930       .  S
C2035      C2036   1.411       .  A
C2035      C2040   1.412       .  A
C2035     Br2042   1.934       .  S
C2036      C2037   1.410       .  A
C2037      C2038   1.410       .  A
C2037     Br2044   1.936       .  S
C2038      C2039   1.422       .  A
C2038     Br2043   1.938       .  S
C2039      C2040   1.422       .  A
C2040     Br2041   1.935       .  S
C2045      C2046   1.409       .  A
C2045      C2050   1.410       .  A
C2045     Br2052   1.929       .  S
C2046      C2047   1.410       .  A
C2047      C2048   1.407       .  A
C2047     Br2054   1.931       .  S
C2048      C2049   1.409       .  A
C2048     Br2053   1.930       .  S
C2049      C2050   1.412       .  A
C2050     Br2051   1.930       .  S
C2055      C2056   1.409       .  A
C2055      C2060   1.409       .  A
C2055     Br2062   1.931       .  S
C2056      C2057   1.412       .  A
C2057      C2058   1.411       .  A
C2057     Br2064   1.931       .  S
C2058      C2059   1.416       .  A
C2058     Br2063   1.932       .  S
C2059      C2060   1.416       .  A
C2060     Br2061   1.932       .  S
C2065      C2066   1.407       .  A
C2065      C2070   1.409       .  A
C2065     Br2072   1.933       .  S
C2066      C2067   1.409       .  A
C2067      C2068   1.412       .  A
C2067     Br2074   1.931       .  S
C2068      C2069   1.416       .  A
C2068     Br2073   1.932       .  S
C2069      C2070   1.416       .  A
C2070     Br2071   1.926       .  S
C2075      C2076   1.414       .  A
C2075      C2080   1.411       .  A
C2075     Br2082   1.929       .  S
C2076      C2077   1.412       .  A
C2077      C2078   1.406       .  A
C2077     Br2084   1.931       .  S
C2078      C2079   1.407       .  A
C2078     Br2083   1.930       .  S
C2079      C2080   1.408       .  A
C2080     Br2081   1.930       .  S
C2085      C2086   1.408       .  A
C2085      C2090   1.409       .  A
C2085     Br2092   1.933       .  S
C2086      C2087   1.407       .  A
C2087      C2088   1.406       .  A
C2087     Br2094   1.932       .  S
C2088      C2089   1.417       .  A
C2088     Br2093   1.932       .  S
C2089      C2090   1.419       .  A
C2090     Br2091   1.932       .  S
C2095      C2096   1.409       .  A
C2095      C2100   1.410       .  A
C2095     Br2102   1.929       .  S
C2096      C2097   1.409       .  A
C2097      C2098   1.410       .  A
C2097     Br2104   1.929       .  S
C2098      C2099   1.412       .  A
C2098     Br2103   1.930       .  S
C2099      C2100   1.410       .  A
C2100     Br2101   1.925       .  S
C2105      C2106   1.409       .  A
C2105      C2110   1.409       .  A
C2105     Br2112   1.929       .  S
C2106      C2107   1.409       .  A
C2107      C2108   1.410       .  A
C2107     Br2114   1.929       .  S
C2108      C2109   1.410       .  A
C2108     Br2113   1.930       .  S
C2109      C2110   1.411       .  A
C2110     Br2111   1.930       .  S
C2115      C2116   1.417       .  A
C2115      C2120   1.405       .  A
C2115     Br2122   1.932       .  S
C2116      C2117   1.424       .  A
C2117      C2118   1.411       .  A
C2117     Br2124   1.935       .  S
C2118      C2119   1.407       .  A
C2118     Br2123   1.928       .  S
C2119      C2120   1.406       .  A
C2120     Br2121   1.927       .  S
C2125      C2126   1.414       .  A
C2125      C2130   1.411       .  A
C2125     Br2132   1.932       .  S
C2126      C2127   1.413       .  A
C2127      C2128   1.409       .  A
C2127     Br2134   1.932       .  S
C2128      C2129   1.411       .  A
C2128     Br2133   1.932       .  S
C2129      C2130   1.412       .  A
C2130     Br2131   1.932       .  S
C2135      C2136   1.412       .  A
C2135      C2140   1.408       .  A
C2135     Br2142   1.929       .  S
C2136      C2137   1.412       .  A
C2137      C2138   1.407       .  A
C2137     Br2144   1.930       .  S
C2138      C2139   1.407       .  A
C2138     Br2143   1.930       .  S
C2139      C2140   1.407       .  A
C2140     Br2141   1.929       .  S
C2145      C2146   1.409       .  A
C2145      C2150   1.407       .  A
C2145     Br2152   1.930       .  S
C2146      C2147   1.411       .  A
C2147      C2148   1.408       .  A
C2147     Br2154   1.931       .  S
C2148      C2149   1.409       .  A
C2148     Br2153   1.931       .  S
C2149      C2150   1.410       .  A
C2150     Br2151   1.931       .  S
C2155      C2156   1.413       .  A
C2155      C2160   1.411       .  A
C2155     Br2162   1.931       .  S
C2156      C2157   1.411       .  A
C2157      C2158   1.410       .  A
C2157     Br2164   1.931       .  S
C2158      C2159   1.411       .  A
C2158     Br2163   1.930       .  S
C2159      C2160   1.410       .  A
C2160     Br2161   1.929       .  S
C2165      C2166   1.409       .  A
C2165      C2170   1.406       .  A
C2165     Br2172   1.931       .  S
C2166      C2167   1.410       .  A
C2167      C2168   1.406       .  A
C2167     Br2174   1.930       .  S
C2168      C2169   1.411       .  A
C2168     Br2173   1.931       .  S
C2169      C2170   1.415       .  A
C2170     Br2171   1.932       .  S
C2175      C2176   1.414       .  A
C2175      C2180   1.407       .  A
C2175     Br2182   1.932       .  S
C2176      C2177   1.413       .  A
C2177      C2178   1.410       .  A
C2177     Br2184   1.929       .  S
C2178      C2179   1.410       .  A
C2178     Br2183   1.929       .  S
C2179      C2180   1.410       .  A
C2180     Br2181   1.933       .  S
C2185      C2186   1.410       .  A
C2185      C2190   1.410       .  A
C2185     Br2192   1.929       .  S
C2186      C2187   1.410       .  A
C2187      C2188   1.412       .  A
C2187     Br2194   1.928   1_554  S
C2188      C2189   1.410       .  A
C2188     Br2193   1.929       .  S
C2189      C2190   1.410       .  A
C2190     Br2191   1.929       .  S
C2195      C2196   1.409       .  A
C2195      C2200   1.407       .  A
C2195     Br2202   1.930       .  S
C2196      C2197   1.409       .  A
C2197      C2198   1.408       .  A
C2197     Br2204   1.932       .  S
C2198      C2199   1.416       .  A
C2198     Br2203   1.931       .  S
C2199      C2200   1.413       .  A
C2200     Br2201   1.932       .  S
C2205      C2206   1.409       .  A
C2205      C2210   1.410       .  A
C2205     Br2212   1.932       .  S
C2206      C2207   1.410       .  A
C2207      C2208   1.409       .  A
C2207     Br2214   1.932       .  S
C2208      C2209   1.414       .  A
C2208     Br2213   1.931       .  S
C2209      C2210   1.418       .  A
C2210     Br2211   1.932       .  S
C2215      C2216   1.410       .  A
C2215      C2220   1.409       .  A
C2215     Br2222   1.931       .  S
C2216      C2217   1.408       .  A
C2217      C2218   1.410       .  A
C2217     Br2224   1.929       .  S
C2218      C2219   1.413       .  A
C2218     Br2223   1.930       .  S
C2219      C2220   1.412       .  A
C2220     Br2221   1.930       .  S
C2225      C2226   1.413       .  A
C2225      C2230   1.409       .  A
C2225     Br2232   1.931       .  S
C2226      C2227   1.412       .  A
C2227      C2228   1.411       .  A
C2227     Br2234   1.930       .  S
C2228      C2229   1.409       .  A
C2228     Br2233   1.929       .  S
C2229      C2230   1.408       .  A
C2230     Br2231   1.930       .  S
C2235      C2236   1.415       .  A
C2235      C2240   1.409       .  A
C2235     Br2242   1.930       .  S
C2236      C2237   1.415       .  A
C2237      C2238   1.406       .  A
C2237     Br2244   1.932       .  S
C2238      C2239   1.409       .  A
C2238     Br2243   1.933       .  S
C2239      C2240   1.407       .  A
C2240     Br2241   1.930       .  S
C2245      C2246   1.413       .  A
C2245      C2250   1.410       .  A
C2245     Br2252   1.930       .  S
C2246      C2247   1.410       .  A
C2247      C2248   1.410       .  A
C2247     Br2254   1.929       .  S
C2248      C2249   1.409       .  A
C2248     Br2253   1.929       .  S
C2249      C2250   1.409       .  A
C2250     Br2251   1.930       .  S
C2255      C2256   1.409       .  A
C2255      C2260   1.409       .  A
C2255     Br2262   1.927       .  S
C2256      C2257   1.411       .  A
C2257      C2258   1.410       .  A
C2257     Br2264   1.926       .  S
C2258      C2259   1.416       .  A
C2258     Br2263   1.933       .  S
C2259      C2260   1.417       .  A
C2260     Br2261   1.932       .  S
C2265      C2266   1.412       .  A
C2265      C2270   1.408       .  A
C2265     Br2272   1.932       .  S
C2266      C2267   1.411       .  A
C2267      C2268   1.409       .  A
C2267     Br2274   1.930   1_554  S
C2268      C2269   1.409       .  A
C2268     Br2273   1.930       .  S
C2269      C2270   1.410       .  A
C2270     Br2271   1.931       .  S
C2275      C2276   1.416       .  A
C2275      C2280   1.410       .  A
C2275     Br2282   1.931       .  S
C2276      C2277   1.416       .  A
C2277      C2278   1.411       .  A
C2277     Br2284   1.932       .  S
C2278      C2279   1.410       .  A
C2278     Br2283   1.931       .  S
C2279      C2280   1.411       .  A
C2280     Br2281   1.932       .  S
C2285      C2286   1.407       .  A
C2285      C2290   1.408       .  A
C2285     Br2292   1.933       .  S
C2286      C2287   1.405       .  A
C2287      C2288   1.407       .  A
C2287     Br2294   1.931       .  S
C2288      C2289   1.418       .  A
C2288     Br2293   1.932       .  S
C2289      C2290   1.417       .  A
C2290     Br2291   1.932       .  S
C2295      C2296   1.407       .  A
C2295      C2300   1.407       .  A
C2295     Br2302   1.932       .  S
C2296      C2297   1.405       .  A
C2297      C2298   1.407       .  A
C2297     Br2304   1.931       .  S
C2298      C2299   1.416       .  A
C2298     Br2303   1.931       .  S
C2299      C2300   1.417       .  A
C2300     Br2301   1.931       .  S
C2305      C2306   1.409       .  A
C2305      C2310   1.407       .  A
C2305     Br2312   1.932       .  S
C2306      C2307   1.409       .  A
C2307      C2308   1.412       .  A
C2307     Br2314   1.930       .  S
C2308      C2309   1.418       .  A
C2308     Br2313   1.930       .  S
C2309      C2310   1.415       .  A
C2310     Br2311   1.932       .  S
C2315      C2316   1.409       .  A
C2315      C2320   1.410       .  A
C2315     Br2322   1.929       .  S
C2316      C2317   1.410       .  A
C2317      C2318   1.407       .  A
C2317     Br2324   1.930       .  S
C2318      C2319   1.409       .  A
C2318     Br2323   1.930       .  S
C2319      C2320   1.410       .  A
C2320     Br2321   1.929       .  S
C2325      C2326   1.415       .  A
C2325      C2330   1.409       .  A
C2325     Br2332   1.936       .  S
C2326      C2327   1.414       .  A
C2327      C2328   1.411       .  A
C2327     Br2334   1.932       .  S
C2328      C2329   1.417       .  A
C2328     Br2333   1.933       .  S
C2329      C2330   1.418       .  A
C2330     Br2331   1.935       .  S
C2335      C2336   1.419       .  A
C2335      C2340   1.408       .  A
C2335     Br2342   1.932       .  S
C2336      C2337   1.419       .  A
C2337      C2338   1.408       .  A
C2337     Br2344   1.933       .  S
C2338      C2339   1.408       .  A
C2338     Br2343   1.933       .  S
C2339      C2340   1.407       .  A
C2340     Br2341   1.932       .  S
C2345      C2346   1.413       .  A
C2345      C2350   1.408       .  A
C2345     Br2352   1.931       .  S
C2346      C2347   1.413       .  A
C2347      C2348   1.409       .  A
C2347     Br2354   1.931       .  S
C2348      C2349   1.410       .  A
C2348     Br2353   1.932       .  S
C2349      C2350   1.408       .  A
C2350     Br2351   1.930       .  S
C2355      C2356   1.418       .  A
C2355      C2360   1.407       .  A
C2355     Br2362   1.932       .  S
C2356      C2357   1.417       .  A
C2357      C2358   1.409       .  A
C2357     Br2364   1.931       .  S
C2358      C2359   1.408       .  A
C2358     Br2363   1.931       .  S
C2359      C2360   1.408       .  A
C2360     Br2361   1.933       .  S
C2365      C2366   1.413       .  A
C2365      C2370   1.413       .  A
C2365     Br2372   1.931       .  S
C2366      C2367   1.415       .  A
C2367      C2368   1.409       .  A
C2367     Br2374   1.933       .  S
C2368      C2369   1.410       .  A
C2368     Br2373   1.932       .  S
C2369      C2370   1.414       .  A
C2370     Br2371   1.931       .  S
C2375      C2376   1.408       .  A
C2375      C2380   1.410       .  A
C2375     Br2382   1.931       .  S
C2376      C2377   1.411       .  A
C2377      C2378   1.410       .  A
C2377     Br2384   1.932       .  S
C2378      C2379   1.415       .  A
C2378     Br2383   1.932       .  S
C2379      C2380   1.416       .  A
C2380     Br2381   1.931       .  S
C2385      C2386   1.410       .  A
C2385      C2390   1.413       .  A
C2385     Br2392   1.930       .  S
C2386      C2387   1.411       .  A
C2387      C2388   1.413       .  A
C2387     Br2394   1.930       .  S
C2388      C2389   1.413       .  A
C2388     Br2393   1.929       .  S
C2389      C2390   1.414       .  A
C2390     Br2391   1.931       .  S
C2395      C2396   1.412       .  A
C2395      C2400   1.411       .  A
C2395     Br2402   1.930       .  S
C2396      C2397   1.410       .  A
C2397      C2398   1.410       .  A
C2397     Br2404   1.924       .  S
C2398      C2399   1.412       .  A
C2398     Br2403   1.932       .  S
C2399      C2400   1.413       .  A
C2400     Br2401   1.930       .  S
C2405      C2406   1.411       .  A
C2405      C2410   1.411       .  A
C2405     Br2412   1.930       .  S
C2406      C2407   1.409       .  A
C2407      C2408   1.408       .  A
C2407     Br2414   1.931       .  S
C2408      C2409   1.410       .  A
C2408     Br2413   1.929       .  S
C2409      C2410   1.411       .  A
C2410     Br2411   1.929       .  S
C2415      C2416   1.416       .  A
C2415      C2420   1.411       .  A
C2415     Br2422   1.932       .  S
C2416      C2417   1.414       .  A
C2417      C2418   1.408       .  A
C2417     Br2424   1.933       .  S
C2418      C2419   1.410       .  A
C2418     Br2423   1.932       .  S
C2419      C2420   1.410       .  A
C2420     Br2421   1.931       .  S
C2425      C2426   1.410       .  A
C2425      C2430   1.409       .  A
C2425     Br2432   1.930       .  S
C2426      C2427   1.410       .  A
C2427      C2428   1.409       .  A
C2427     Br2434   1.931       .  S
C2428      C2429   1.412       .  A
C2428     Br2433   1.930       .  S
C2429      C2430   1.410       .  A
C2430     Br2431   1.930       .  S
C2435      C2436   1.410       .  A
C2435      C2440   1.412       .  A
C2435     Br2442   1.932       .  S
C2436      C2437   1.408       .  A
C2437      C2438   1.408       .  A
C2437     Br2444   1.933       .  S
C2438      C2439   1.419       .  A
C2438     Br2443   1.936       .  S
C2439      C2440   1.418       .  A
C2440     Br2441   1.932       .  S
C2445      C2446   1.407       .  A
C2445      C2450   1.408       .  A
C2445     Br2452   1.930       .  S
C2446      C2447   1.408       .  A
C2447      C2448   1.407       .  A
C2447     Br2454   1.930       .  S
C2448      C2449   1.411       .  A
C2448     Br2453   1.930       .  S
C2449      C2450   1.411       .  A
C2450     Br2451   1.929       .  S
C2455      C2456   1.417       .  A
C2455      C2460   1.409       .  A
C2455     Br2462   1.925       .  S
C2456      C2457   1.416       .  A
C2457      C2458   1.412       .  A
C2457     Br2464   1.932       .  S
C2458      C2459   1.410       .  A
C2458     Br2463   1.930       .  S
C2459      C2460   1.407       .  A
C2460     Br2461   1.933       .  S
C2465      C2466   1.410       .  A
C2465      C2470   1.410       .  A
C2465     Br2472   1.929       .  S
C2466      C2467   1.411       .  A
C2467      C2468   1.409       .  A
C2467     Br2474   1.931       .  S
C2468      C2469   1.409       .  A
C2468     Br2473   1.929       .  S
C2469      C2470   1.411       .  A
C2470     Br2471   1.930       .  S
C2475      C2476   1.419       .  A
C2475      C2480   1.409       .  A
C2475     Br2482   1.931       .  S
C2476      C2477   1.419       .  A
C2477      C2478   1.405       .  A
C2477     Br2484   1.934       .  S
C2478      C2479   1.406       .  A
C2478     Br2483   1.933       .  S
C2479      C2480   1.406       .  A
C2480     Br2481   1.931       .  S
C2485      C2486   1.409       .  A
C2485      C2490   1.409       .  A
C2485     Br2492   1.930       .  S
C2486      C2487   1.411       .  A
C2487      C2488   1.409       .  A
C2487     Br2494   1.930       .  S
C2488      C2489   1.409       .  A
C2488     Br2493   1.930       .  S
C2489      C2490   1.411       .  A
C2490     Br2491   1.930       .  S
C2495      C2496   1.416       .  A
C2495      C2500   1.408       .  A
C2495     Br2502   1.933       .  S
C2496      C2497   1.415       .  A
C2497      C2498   1.410       .  A
C2497     Br2504   1.931       .  S
C2498      C2499   1.412       .  A
C2498     Br2503   1.933       .  S
C2499      C2500   1.411       .  A
C2500     Br2501   1.933       .  S
C2505      C2506   1.412       .  A
C2505      C2510   1.407       .  A
C2505     Br2512   1.931       .  S
C2506      C2507   1.412       .  A
C2507      C2508   1.411       .  A
C2507     Br2514   1.929       .  S
C2508      C2509   1.408       .  A
C2508     Br2513   1.929       .  S
C2509      C2510   1.409       .  A
C2510     Br2511   1.932       .  S
C2515      C2516   1.410       .  A
C2515      C2520   1.409       .  A
C2515     Br2522   1.932       .  S
C2516      C2517   1.410       .  A
C2517      C2518   1.407       .  A
C2517     Br2524   1.932       .  S
C2518      C2519   1.413       .  A
C2518     Br2523   1.931       .  S
C2519      C2520   1.416       .  A
C2520     Br2521   1.931       .  S
C2525      C2526   1.410       .  A
C2525      C2530   1.413       .  A
C2525     Br2532   1.930       .  S
C2526      C2527   1.408       .  A
C2527      C2528   1.406       .  A
C2527     Br2534   1.932       .  S
C2528      C2529   1.417       .  A
C2528     Br2533   1.934       .  S
C2529      C2530   1.418       .  A
C2530     Br2531   1.929       .  S
C2535      C2536   1.419       .  A
C2535      C2540   1.405       .  A
C2535     Br2542   1.933       .  S
C2536      C2537   1.416       .  A
C2537      C2538   1.410       .  A
C2537     Br2544   1.930       .  S
C2538      C2539   1.409       .  A
C2538     Br2543   1.931       .  S
C2539      C2540   1.405       .  A
C2540     Br2541   1.933       .  S
C2545      C2546   1.408       .  A
C2545      C2550   1.408       .  A
C2545     Br2552   1.929       .  S
C2546      C2547   1.409       .  A
C2547      C2548   1.408       .  A
C2547     Br2554   1.929       .  S
C2548      C2549   1.410       .  A
C2548     Br2553   1.930       .  S
C2549      C2550   1.410       .  A
C2550     Br2551   1.930       .  S
C2555      C2556   1.407       .  A
C2555      C2560   1.408       .  A
C2555     Br2562   1.932       .  S
C2556      C2557   1.406       .  A
C2557      C2558   1.408       .  A
C2557     Br2564   1.932       .  S
C2558      C2559   1.419       .  A
C2558     Br2563   1.931       .  S
C2559      C2560   1.418       .  A
C2560     Br2561   1.932       .  S
C2565      C2566   1.410       .  A
C2565      C2570   1.410       .  A
C2565     Br2572   1.931       .  S
C2566      C2567   1.411       .  A
C2567      C2568   1.410       .  A
C2567     Br2574   1.932       .  S
C2568      C2569   1.413       .  A
C2568     Br2573   1.931       .  S
C2569      C2570   1.416       .  A
C2570     Br2571   1.931       .  S
C2575      C2576   1.414       .  A
C2575      C2580   1.403       .  A
C2575     Br2582   1.933       .  S
C2576      C2577   1.414       .  A
C2577      C2578   1.407       .  A
C2577     Br2584   1.930       .  S
C2578      C2579   1.409       .  A
C2578     Br2583   1.931       .  S
C2579      C2580   1.408       .  A
C2580     Br2581   1.933       .  S
C2585      C2586   1.411       .  A
C2585      C2590   1.409       .  A
C2585     Br2592   1.930       .  S
C2586      C2587   1.410       .  A
C2587      C2588   1.410       .  A
C2587     Br2594   1.928       .  S
C2588      C2589   1.408       .  A
C2588     Br2593   1.929       .  S
C2589      C2590   1.409       .  A
C2590     Br2591   1.930       .  S
C2595      C2596   1.410       .  A
C2595      C2600   1.411       .  A
C2595     Br2602   1.932       .  S
C2596      C2597   1.410       .  A
C2597      C2598   1.411       .  A
C2597     Br2604   1.932       .  S
C2598      C2599   1.415       .  A
C2598     Br2603   1.931       .  S
C2599      C2600   1.415       .  A
C2600     Br2601   1.931       .  S
C2605      C2606   1.409       .  A
C2605      C2610   1.410       .  A
C2605     Br2612   1.929       .  S
C2606      C2607   1.410       .  A
C2607      C2608   1.409       .  A
C2607     Br2614   1.929       .  S
C2608      C2609   1.410       .  A
C2608     Br2613   1.930       .  S
C2609      C2610   1.411       .  A
C2610     Br2611   1.929       .  S
C2615      C2616   1.409       .  A
C2615      C2620   1.409       .  A
C2615     Br2622   1.932       .  S
C2616      C2617   1.410       .  A
C2617      C2618   1.409       .  A
C2617     Br2624   1.932       .  S
C2618      C2619   1.418       .  A
C2618     Br2623   1.932       .  S
C2619      C2620   1.419       .  A
C2620     Br2621   1.931       .  S
C2625      C2626   1.416       .  A
C2625      C2630   1.413       .  A
C2625     Br2632   1.931       .  S
C2626      C2627   1.414       .  A
C2627      C2628   1.409       .  A
C2627     Br2634   1.932       .  S
C2628      C2629   1.410       .  A
C2628     Br2633   1.933       .  S
C2629      C2630   1.410       .  A
C2630     Br2631   1.931       .  S
C2635      C2636   1.408       .  A
C2635      C2640   1.410       .  A
C2635     Br2642   1.929       .  S
C2636      C2637   1.408       .  A
C2637      C2638   1.409       .  A
C2637     Br2644   1.929       .  S
C2638      C2639   1.412       .  A
C2638     Br2643   1.930       .  S
C2639      C2640   1.413       .  A
C2640     Br2641   1.930       .  S
C2645      C2646   1.412       .  A
C2645      C2650   1.411       .  A
C2645     Br2652   1.932       .  S
C2646      C2647   1.411       .  A
C2647      C2648   1.408       .  A
C2647     Br2654   1.933       .  S
C2648      C2649   1.415       .  A
C2648     Br2653   1.933       .  S
C2649      C2650   1.414       .  A
C2650     Br2651   1.930       .  S
C2655      C2656   1.408       .  A
C2655      C2660   1.407       .  A
C2655     Br2662   1.929       .  S
C2656      C2657   1.409       .  A
C2657      C2658   1.407       .  A
C2657     Br2664   1.929       .  S
C2658      C2659   1.409       .  A
C2658     Br2663   1.929       .  S
C2659      C2660   1.409       .  A
C2660     Br2661   1.929       .  S
C2665      C2666   1.408       .  A
C2665      C2670   1.414       .  A
C2665     Br2672   1.935       .  S
C2666      C2667   1.410       .  A
C2667      C2668   1.414       .  A
C2667     Br2674   1.936       .  S
C2668      C2669   1.426       .  A
C2668     Br2673   1.935       .  S
C2669      C2670   1.426       .  A
C2670     Br2671   1.931       .  S
C2675      C2676   1.414       .  A
C2675      C2680   1.411       .  A
C2675     Br2682   1.930       .  S
C2676      C2677   1.414       .  A
C2677      C2678   1.410       .  A
C2677     Br2684   1.932       .  S
C2678      C2679   1.410       .  A
C2678     Br2683   1.932       .  S
C2679      C2680   1.410       .  A
C2680     Br2681   1.931       .  S
C2685      C2686   1.417       .  A
C2685      C2690   1.407       .  A
C2685     Br2692   1.932       .  S
C2686      C2687   1.416       .  A
C2687      C2688   1.410       .  A
C2687     Br2694   1.931       .  S
C2688      C2689   1.410       .  A
C2688     Br2693   1.931       .  S
C2689      C2690   1.408       .  A
C2690     Br2691   1.932       .  S
C2695      C2696   1.407       .  A
C2695      C2700   1.408       .  A
C2695     Br2702   1.931       .  S
C2696      C2697   1.409       .  A
C2697      C2698   1.411       .  A
C2697     Br2704   1.930       .  S
C2698      C2699   1.414       .  A
C2698     Br2703   1.930       .  S
C2699      C2700   1.416       .  A
C2700     Br2701   1.933       .  S
C2705      C2706   1.408       .  A
C2705      C2710   1.408       .  A
C2705     Br2712   1.930       .  S
C2706      C2707   1.408       .  A
C2707      C2708   1.410       .  A
C2707     Br2714   1.930       .  S
C2708      C2709   1.412       .  A
C2708     Br2713   1.929       .  S
C2709      C2710   1.412       .  A
C2710     Br2711   1.930       .  S
C2715      C2716   1.414       .  A
C2715      C2720   1.412       .  A
C2715     Br2722   1.929       .  S
C2716      C2717   1.413       .  A
C2717      C2718   1.407       .  A
C2717     Br2724   1.933       .  S
C2718      C2719   1.411       .  A
C2718     Br2723   1.932       .  S
C2719      C2720   1.412       .  A
C2720     Br2721   1.931       .  S
