geometry optimzed in LAMMPS
_audit_creation_date              2020-11-30 
_audit_creation_method            'lammps2cif' 
_symmetry_space_group_name_H-M    'P1' 
_symmetry_Int_Tables_number       1 
_symmetry_cell_setting            triclinic 
loop_ 
_symmetry_equiv_pos_as_xyz 
  x,y,z 
_cell_length_a                    68.18410668 
_cell_length_b                    68.54529392065707 
_cell_length_c                    96.66370029978918 
_cell_angle_alpha                 89.98919437314821 
_cell_angle_beta                  90.03600591538915 
_cell_angle_gamma                 120.5904722374986 
loop_ 
_atom_site_label 
_atom_site_type_symbol 
_atom_site_fract_x 
_atom_site_fract_y 
_atom_site_fract_z 
_atom_site_charge 
N1          N  0.34600406  0.27492512  0.66596950    -0.27300
N2          N  0.36849160  0.28513476  0.66649012    -0.35200
C3          C  0.37448193  0.27551871  0.67649909     0.01000
C4          C  0.35487652  0.25831235  0.68254816     0.07000
C5          C  0.33714072  0.25837965  0.67556492    -0.06100
H6          H  0.39187038  0.28096296  0.67935823     0.07700
H7          H  0.31910883  0.24750294  0.67751717     0.08900
Cu8        Cu  0.39031511  0.31209280  0.65388061     0.44200
Cu9        Cu  0.32831158  0.28510712  0.65303020     0.42000
Cu10       Cu  0.36364050  0.33673757  0.63392869     0.43900
N11         N  0.40807133  0.33926021  0.64048891    -0.34700
N12         N  0.39842318  0.34918540  0.63399820    -0.29000
C13         C  0.41414216  0.36620616  0.62622295    -0.05100
C14         C  0.43462713  0.36666942  0.62745307     0.07100
C15         C  0.43008284  0.34929952  0.63664988     0.00900
H16         H  0.41061382  0.37685168  0.61967108     0.08600
H17         H  0.44164955  0.34375937  0.63990823     0.07700
N18         N  0.32832704  0.31932918  0.63337124    -0.36200
N19         N  0.31523081  0.30048344  0.64035867    -0.28300
C20         C  0.29323469  0.29402115  0.63805039    -0.03600
C21         C  0.29251090  0.30949766  0.62912689     0.05000
C22         C  0.31509155  0.32521125  0.62634822     0.03100
H23         H  0.27885430  0.27939155  0.64271722     0.08200
H24         H  0.32145010  0.34005216  0.61983180     0.07100
N25         N  0.93140885  0.28019453  0.66695502    -0.27300
N26         N  0.92180790  0.29266356  0.66841786    -0.35200
C27         C  0.90690235  0.28431126  0.67896866     0.01000
C28         C  0.90730406  0.26581299  0.68435443     0.07000
C29         C  0.92298358  0.26366892  0.67650268    -0.06100
H30         H  0.89623160  0.29089731  0.68228218     0.07700
H31         H  0.92760928  0.25079200  0.67747548     0.08900
Cu32       Cu  0.92793515  0.31912725  0.65521276     0.44200
Cu33       Cu  0.95491335  0.28548070  0.65188361     0.42000
Cu34       Cu  0.96070448  0.32378992  0.62461737     0.43900
N35         N  0.93128539  0.33938147  0.63832708    -0.34700
N36         N  0.94175493  0.33963459  0.62676887    -0.29000
C37         C  0.93870520  0.35223269  0.61730213    -0.05100
C38         C  0.92607160  0.36075711  0.62322297     0.07100
C39         C  0.92178747  0.35228363  0.63661231     0.00900
H40         H  0.94510724  0.35485649  0.60682032     0.08600
H41         H  0.91214780  0.35497935  0.64448724     0.07700
N42         N  0.98116028  0.30951942  0.62642349    -0.36200
N43         N  0.97896459  0.29548585  0.63648638    -0.28300
C44         C  0.99573818  0.29070403  0.63553757    -0.03600
C45         C  0.00917804  0.30234532  0.62434203     0.05000
C46         C  0.99947572  0.31407280  0.61877299     0.03100
H47         H  0.99842813  0.28022664  0.64276034     0.08200
H48         H  0.00582129  0.32577318  0.61016105     0.07100
N49         N  0.12834652  0.31992475  0.60012487    -0.27300
N50         N  0.12577889  0.33330165  0.59135618    -0.35200
C51         C  0.10573722  0.33194139  0.59381267     0.01000
C52         C  0.09517918  0.31707095  0.60463098     0.07000
C53         C  0.10993893  0.30974447  0.60843288    -0.06100
H54         H  0.09931312  0.34114345  0.58814482     0.07700
H55         H  0.10747124  0.29788534  0.61658230     0.08900
Cu56       Cu  0.14923519  0.35315857  0.57634765     0.44200
Cu57       Cu  0.15691829  0.31640874  0.60054864     0.42000
Cu58       Cu  0.19965278  0.34910007  0.57471722     0.43900
N59         N  0.17516651  0.37115195  0.56219434    -0.34700
N60         N  0.19351428  0.36930786  0.56145698    -0.29000
C61         C  0.20724449  0.38313363  0.55144185    -0.05100
C62         C  0.19711497  0.39431132  0.54564344     0.07100
C63         C  0.17677429  0.38629099  0.55270572     0.00900
H64         H  0.22359478  0.38518847  0.54876651     0.08600
H65         H  0.16414050  0.39117574  0.55113826     0.07700
N66         N  0.20390263  0.33031728  0.59009222    -0.36200
N67         N  0.18831393  0.31825272  0.59952175    -0.28300
C68         C  0.19701301  0.30955122  0.60848617    -0.03600
C69         C  0.21909249  0.31649329  0.60447232     0.05000
C70         C  0.22291341  0.32967297  0.59282811     0.03100
H71         H  0.18829706  0.29976996  0.61757921     0.08200
H72         H  0.23867556  0.33886917  0.58709675     0.07100
N73         N  0.99959651  0.67069644  0.66002581    -0.27300
N74         N  0.00283270  0.65565968  0.65338982    -0.35200
C75         C  0.02345076  0.66639511  0.64733106     0.01000
C76         C  0.03374529  0.68924634  0.65024758     0.07000
C77         C  0.01816573  0.69145128  0.65829010    -0.06100
H78         H  0.03018336  0.65825124  0.64089779     0.07700
H79         H  0.02000834  0.70700883  0.66234309     0.08900
Cu80       Cu  0.97861550  0.62139962  0.65145987     0.44200
Cu81       Cu  0.96961938  0.66225738  0.67071099     0.42000
Cu82       Cu  0.92403004  0.60372072  0.66583588     0.43900
N83         N  0.95028081  0.58962761  0.64773142    -0.34700
N84         N  0.92977879  0.58362970  0.65240293    -0.29000
C85         C  0.91442330  0.56378959  0.64659011    -0.05100
C86         C  0.92583041  0.55678710  0.63790264     0.07100
C87         C  0.94860280  0.57351678  0.63904982     0.00900
H88         H  0.89620190  0.55557922  0.64811119     0.08600
H89         H  0.96279225  0.57449349  0.63343234     0.07700
N90         N  0.92179351  0.62641713  0.67893418    -0.36200
N91         N  0.93791272  0.64788270  0.68051252    -0.28300
C92         C  0.93022500  0.65788235  0.68921732    -0.03600
C93         C  0.90829335  0.64188778  0.69332774     0.05000
C94         C  0.90366717  0.62213984  0.68667036     0.03100
H95         H  0.93976823  0.67554068  0.69221000     0.08200
H96         H  0.88808851  0.60585761  0.68724988     0.07100
N97         N  0.33194663  0.99765894  0.66058564    -0.27300
N98         N  0.34789745  0.99547662  0.65421579    -0.35200
C99         C  0.33817841  0.97498737  0.64810753     0.01000
C100        C  0.31499236  0.96366275  0.65071990     0.07000
C101        C  0.31167160  0.97853920  0.65871113    -0.06100
H102        H  0.34713179  0.96922822  0.64159553     0.07700
H103        H  0.29556754  0.97599277  0.66242368     0.08900
Cu104      Cu  0.38142469  0.02177385  0.65183173     0.44200
Cu105      Cu  0.33824941  0.02756037  0.67023865     0.42000
Cu106      Cu  0.38953817  0.07729532  0.65787207     0.43900
N107        N  0.40901097  0.05133561  0.64409895    -0.34700
N108        N  0.41042870  0.07125113  0.64485347    -0.29000
C109        C  0.42733506  0.08587126  0.63645571    -0.05100
C110        C  0.43756694  0.07486352  0.63034408     0.07100
C111        C  0.42551182  0.05301047  0.63567935     0.00900
H112        H  0.43150462  0.10314583  0.63470705     0.08600
H113        H  0.42806391  0.03904089  0.63332958     0.07700
N114        N  0.36863761  0.07828974  0.67340402    -0.36200
N115        N  0.35003533  0.06009667  0.67801606    -0.28300
C116        C  0.34109321  0.06624018  0.68840282    -0.03600
C117        C  0.35468379  0.08938288  0.69042462     0.05000
C118        C  0.37197769  0.09645909  0.68075179     0.03100
H119        H  0.32597432  0.05468745  0.69417024     0.08200
H120        H  0.38617052  0.11350980  0.67933265     0.07100
N121        N  0.21790878  0.84435874  0.62218233    -0.27300
N122        N  0.23070420  0.85016238  0.61092017    -0.35200
C123        C  0.24959397  0.87049584  0.61291869     0.01000
C124        C  0.24873401  0.87787023  0.62607457     0.07000
C125        C  0.22844187  0.86095225  0.63167172    -0.06100
H126        H  0.26292055  0.87929574  0.60532950     0.07700
H127        H  0.22173226  0.86085237  0.64182521     0.08900
Cu128      Cu  0.22239938  0.83021238  0.59332806     0.44200
Cu129      Cu  0.18637682  0.81422849  0.62386335     0.42000
Cu130      Cu  0.16951177  0.77716403  0.59351560     0.43900
N131        N  0.21284848  0.80645221  0.57766382    -0.34700
N132        N  0.19357521  0.78672131  0.57774416    -0.29000
C133        C  0.19326850  0.77457924  0.56669190    -0.05100
C134        C  0.21331922  0.78735414  0.55933531     0.07100
C135        C  0.22525029  0.80747136  0.56657877     0.00900
H136        H  0.17965456  0.75757973  0.56433357     0.08600
H137        H  0.24202032  0.82158417  0.56420746     0.07700
N138        N  0.14913170  0.77053606  0.61100046    -0.36200
N139        N  0.15525595  0.78365239  0.62211245    -0.28300
C140        C  0.13825637  0.77416458  0.63148497    -0.03600
C141        C  0.12059573  0.75423221  0.62598497     0.05000
C142        C  0.12813489  0.75250341  0.61300631     0.03100
H143        H  0.13861488  0.78132549  0.64152049     0.08200
H144        H  0.11902781  0.73904239  0.60556872     0.07100
N145        N  0.56958546  0.14914792  0.55114427    -0.36600
N146        N  0.58939927  0.12979879  0.56911568    -0.57200
N147        N  0.54958536  0.11139772  0.58725244    -0.36600
N148        N  0.53041242  0.13224760  0.56985652    -0.57200
C149        C  0.59084657  0.15886211  0.54571470     0.26900
C150        C  0.55984018  0.16081916  0.54636819     0.26900
C151        C  0.56407646  0.10845421  0.59538358     0.26900
C152        C  0.53191200  0.10819563  0.59527689     0.26900
C153        C  0.60472930  0.13670597  0.55869388     0.35600
C154        C  0.59456833  0.11769679  0.57787489     0.35600
C155        C  0.52328704  0.14079559  0.55969898     0.35600
C156        C  0.51237271  0.12025147  0.57835386     0.35600
C157        C  0.59438382  0.17652454  0.53707298    -0.21900
C158        C  0.57492160  0.17784718  0.53755282    -0.21900
C159        C  0.55525290  0.10284416  0.60865912    -0.21900
C160        C  0.53486493  0.10241224  0.60855434    -0.21900
C161        C  0.61968028  0.12891093  0.56084212    -0.23000
C162        C  0.61318141  0.11678965  0.57293029    -0.23000
C163        C  0.50065118  0.13430137  0.56181946    -0.23000
C164        C  0.49377078  0.12135565  0.57362913    -0.23000
C165        C  0.60699623  0.15196299  0.54809872    -0.18300
C166        C  0.53732102  0.15589119  0.54917101    -0.18300
C167        C  0.51291624  0.10982762  0.59091099    -0.18300
C168        C  0.58458433  0.10976282  0.59105525    -0.18300
H169        H  0.60944829  0.18742122  0.53105540     0.14600
H170        H  0.57214732  0.18990529  0.53194644     0.14600
H171        H  0.56260208  0.09917611  0.61749378     0.14600
H172        H  0.52361939  0.09846834  0.61733224     0.14600
H173        H  0.63417525  0.13213021  0.55457878     0.12900
H174        H  0.62167638  0.10883856  0.57776359     0.12900
H175        H  0.49027976  0.13878441  0.55564325     0.12900
H176        H  0.47708706  0.11394553  0.57833300     0.12900
H177        H  0.56141935  0.13414963  0.55672294     0.26100
H178        H  0.55062524  0.11343660  0.57659896     0.26100
N179        N  0.47732009  0.20981708  0.50552824    -0.27300
N180        N  0.49656401  0.22912733  0.50764979    -0.35200
C181        C  0.51102251  0.22502419  0.51477396     0.01000
C182        C  0.50040384  0.20202479  0.51741267     0.07000
C183        C  0.47903458  0.19287524  0.51135803    -0.06100
H184        H  0.52777641  0.23797132  0.51820676     0.07700
H185        H  0.46556021  0.17528609  0.51146663     0.08900
Cu186      Cu  0.50103346  0.26066423  0.50314450     0.44200
Cu187      Cu  0.44967943  0.20816687  0.49512330     0.42000
Cu188      Cu  0.45047930  0.26170450  0.49486037     0.43900
N189        N  0.49772613  0.28870752  0.50621344    -0.34700
N190        N  0.47836037  0.28840597  0.50449845    -0.29000
C191        C  0.47994516  0.30674448  0.51070515    -0.05100
C192        C  0.50145590  0.31924416  0.51654852     0.07100
C193        C  0.51231486  0.30742963  0.51324987     0.00900
H194        H  0.46602406  0.30995653  0.51163042     0.08600
H195        H  0.52897146  0.31117963  0.51671013     0.07700
N196        N  0.42785300  0.23356211  0.48342973    -0.36200
N197        N  0.42738384  0.21402352  0.48348003    -0.28300
C198        C  0.41202249  0.20016090  0.47406081    -0.03600
C199        C  0.40252980  0.21160633  0.46776666     0.05000
C200        C  0.41294143  0.23268532  0.47398546     0.03100
H201        H  0.40874588  0.18337416  0.47156904     0.08200
H202        H  0.41053320  0.24670821  0.47147488     0.07100
N203        N  0.57433013  0.43442401  0.55709529    -0.36600
N204        N  0.59472296  0.47459977  0.57485960    -0.57200
N205        N  0.55512547  0.45315623  0.59263908    -0.36600
N206        N  0.53408385  0.41372134  0.57422740    -0.57200
C207        C  0.59278435  0.44853786  0.54947189     0.26900
C208        C  0.56057862  0.41642118  0.54902108     0.26900
C209        C  0.56551063  0.47461188  0.59762276     0.26900
C210        C  0.53332799  0.44232355  0.59719517     0.26900
C211        C  0.61286517  0.47974362  0.56675733     0.35600
C212        C  0.60251747  0.48989115  0.58527536     0.35600
C213        C  0.52878977  0.39591787  0.56583236     0.35600
C214        C  0.51946848  0.40551830  0.58499696     0.35600
C215        C  0.59096166  0.43924899  0.53645508    -0.21900
C216        C  0.57074699  0.41893240  0.53620240    -0.21900
C217        C  0.55018512  0.47732234  0.60562201    -0.21900
C218        C  0.52981419  0.45703589  0.60522267    -0.21900
C219        C  0.63221115  0.49853279  0.57195462    -0.23000
C220        C  0.62563592  0.50506527  0.58361443    -0.23000
C221        C  0.51042726  0.37638922  0.57116877    -0.23000
C222        C  0.50487781  0.38234520  0.58344356    -0.23000
C223        C  0.61208011  0.46868686  0.55424769    -0.18300
C224        C  0.53979793  0.39717219  0.55317208    -0.18300
C225        C  0.51717135  0.41901051  0.59523987    -0.18300
C226        C  0.58875519  0.49134584  0.59569788    -0.18300
H227        H  0.60316628  0.44616479  0.52808189     0.14600
H228        H  0.56447454  0.40724203  0.52758239     0.14600
H229        H  0.55334043  0.49229869  0.61124255     0.14600
H230        H  0.51432510  0.45335923  0.61052508     0.14600
H231        H  0.64923593  0.50692785  0.56766167     0.12900
H232        H  0.63663789  0.51951879  0.59001619     0.12900
H233        H  0.50187437  0.35955289  0.56673980     0.12900
H234        H  0.49109066  0.37098939  0.59019199     0.12900
H235        H  0.57260017  0.43583214  0.56762928     0.26100
H236        H  0.56313509  0.44550398  0.58786592     0.26100
N237        N  0.72281428  0.52228893  0.50676040    -0.27300
N238        N  0.73190632  0.51959826  0.51814108    -0.35200
C239        C  0.71628057  0.51184196  0.52825110     0.01000
C240        C  0.69601030  0.50866738  0.52292383     0.07000
C241        C  0.70084789  0.51560868  0.50924158    -0.06100
H242        H  0.71919333  0.50774194  0.53857224     0.07700
H243        H  0.68910342  0.51503922  0.50150409     0.08900
Cu244      Cu  0.76348676  0.52232454  0.51896655     0.44200
Cu245      Cu  0.74109610  0.53482167  0.48855432     0.42000
Cu246      Cu  0.79728756  0.53967514  0.48828870     0.43900
N247        N  0.79332757  0.52166169  0.51705496    -0.34700
N248        N  0.80586855  0.52787481  0.50571145    -0.29000
C249        C  0.82360632  0.52466761  0.50758228    -0.05100
C250        C  0.82195060  0.51585246  0.52071961     0.07100
C251        C  0.80260781  0.51425070  0.52642064     0.00900
H252        H  0.83656387  0.52824858  0.49991415     0.08600
H253        H  0.79551197  0.50768686  0.53653183     0.07700
N254        N  0.78523357  0.55202730  0.47287920    -0.36200
N255        N  0.76503730  0.55039403  0.47295265    -0.28300
C256        C  0.76338059  0.56128546  0.46182272    -0.03600
C257        C  0.78345397  0.57012120  0.45440286     0.05000
C258        C  0.79687378  0.56389397  0.46168782     0.03100
H259        H  0.74880427  0.56298128  0.45946929     0.08200
H260        H  0.81406997  0.56810861  0.45923127     0.07100
N261        N  0.71892004  0.20993588  0.50130114    -0.27300
N262        N  0.72973908  0.21748060  0.51318999    -0.35200
C263        C  0.71462465  0.20841449  0.52357453     0.01000
C264        C  0.69298960  0.19512669  0.51801027     0.07000
C265        C  0.69649998  0.19646132  0.50380317    -0.06100
H266        H  0.71897853  0.21232838  0.53437590     0.07700
H267        H  0.68361697  0.18904599  0.49582382     0.08900
Cu268      Cu  0.76273860  0.24490983  0.51463598     0.44200
Cu269      Cu  0.73559964  0.21934646  0.48240509     0.42000
Cu270      Cu  0.78767869  0.27408542  0.48274214     0.43900
N271        N  0.78732037  0.27909589  0.51353890    -0.34700
N272        N  0.79494432  0.29024340  0.50176653    -0.29000
C273        C  0.80746300  0.31258174  0.50447182    -0.05100
C274        C  0.80796754  0.31567013  0.51867719     0.07100
C275        C  0.79514313  0.29398849  0.52405717     0.00900
H276        H  0.81521991  0.32562612  0.49664655     0.08600
H277        H  0.79114929  0.28937596  0.53482326     0.07700
N278        N  0.77853942  0.25092784  0.46672167    -0.36200
N279        N  0.75945024  0.23101400  0.46657665    -0.28300
C280        C  0.75959101  0.21917922  0.45552770    -0.03600
C281        C  0.77977475  0.23221111  0.44842221     0.05000
C282        C  0.79136518  0.25225169  0.45578554     0.03100
H283        H  0.74646686  0.20193075  0.45324619     0.08200
H284        H  0.80827717  0.26635813  0.45371002     0.07100
N285        N  0.86078817  0.43756948  0.55447136    -0.36600
N286        N  0.87502296  0.41235737  0.57231186    -0.57200
N287        N  0.88732702  0.44562772  0.59387880    -0.36600
N288        N  0.87361699  0.47124327  0.57605830    -0.57200
C289        C  0.84868659  0.41654344  0.54890164     0.26900
C290        C  0.85164441  0.44976115  0.54958721     0.26900
C291        C  0.89792692  0.43484431  0.59876433     0.26900
C292        C  0.89531514  0.46510151  0.60113074     0.26900
C293        C  0.86605911  0.39739398  0.56179616     0.35600
C294        C  0.88381437  0.40372630  0.58131112     0.35600
C295        C  0.86183379  0.47733041  0.56762197     0.35600
C296        C  0.87357996  0.47962423  0.58870039     0.35600
C297        C  0.83159580  0.41534913  0.54051787    -0.21900
C298        C  0.83301590  0.43603734  0.54129827    -0.21900
C299        C  0.91237170  0.44737512  0.60950715    -0.21900
C300        C  0.91096982  0.46662052  0.61087065    -0.21900
C301        C  0.86952237  0.37937189  0.56401528    -0.23000
C302        C  0.88085985  0.38344068  0.57632161    -0.23000
C303        C  0.85273901  0.48802991  0.57523014    -0.23000
C304        C  0.86088876  0.49020316  0.58849481    -0.23000
C305        C  0.85266234  0.39837326  0.55097756    -0.18300
C306        C  0.85872598  0.47245330  0.55326925    -0.18300
C307        C  0.88759865  0.48066133  0.59974357    -0.18300
C308        C  0.89466089  0.41384988  0.59395717    -0.18300
H309        H  0.81895495  0.40086797  0.53472242     0.14600
H310        H  0.82138535  0.44032513  0.53646117     0.14600
H311        H  0.92299662  0.44321788  0.61567156     0.14600
H312        H  0.92013097  0.47998170  0.61836422     0.14600
H313        H  0.86393586  0.36448634  0.55763358     0.12900
H314        H  0.88603160  0.37249641  0.58111923     0.12900
H315        H  0.84160510  0.49389279  0.57161247     0.12900
H316        H  0.85798384  0.49869755  0.59699856     0.12900
H317        H  0.87561658  0.44391817  0.56033500     0.26100
H318        H  0.87383311  0.43921374  0.58692098     0.26100
N319        N  0.72526172  0.07890576  0.66335121    -0.27300
N320        N  0.71703881  0.09272082  0.66375991    -0.35200
C321        C  0.72700859  0.10748307  0.67422569     0.01000
C322        C  0.74216942  0.10269241  0.68067016     0.07000
C323        C  0.74063983  0.08451312  0.67354674    -0.06100
H324        H  0.72344876  0.12068015  0.67695856     0.07700
H325        H  0.74990797  0.07589422  0.67567291     0.08900
Cu326      Cu  0.69256735  0.09113507  0.65028151     0.44200
Cu327      Cu  0.71541499  0.05274673  0.64922990     0.42000
Cu328      Cu  0.67671451  0.04973473  0.62308088     0.43900
N329        N  0.66876149  0.08580686  0.63514078    -0.34700
N330        N  0.66361830  0.07115670  0.62493318    -0.29000
C331        C  0.64800706  0.07175287  0.61673553    -0.05100
C332        C  0.64282718  0.08735214  0.62207570     0.07100
C333        C  0.65633923  0.09593370  0.63378384     0.00900
H334        H  0.64082709  0.06145902  0.60757078     0.08600
H335        H  0.65700264  0.10849083  0.64085160     0.07700
N336        N  0.68775737  0.02659140  0.62457663    -0.36200
N337        N  0.70178412  0.02745352  0.63432771    -0.28300
C338        C  0.70399902  0.00906947  0.63326204    -0.03600
C339        C  0.69074757  0.99610419  0.62228297     0.05000
C340        C  0.68070753  0.00768815  0.61701774     0.03100
H341        H  0.71391545  0.00508244  0.64021038     0.08200
H342        H  0.66847867  0.00231000  0.60866039     0.07100
N343        N  0.71737401  0.66294865  0.67098160    -0.27300
N344        N  0.70569866  0.64055200  0.67151806    -0.35200
C345        C  0.71469966  0.63353119  0.68133083     0.01000
C346        C  0.73280093  0.65237158  0.68740713     0.07000
C347        C  0.73399475  0.67075116  0.68058867    -0.06100
H348        H  0.70874170  0.61595665  0.68370283     0.07700
H349        H  0.74616724  0.68848460  0.68240645     0.08900
Cu350      Cu  0.67900780  0.62021006  0.65833650     0.44200
Cu351      Cu  0.71047436  0.68165621  0.65680487     0.42000
Cu352      Cu  0.67684406  0.64844086  0.62751996     0.43900
N353        N  0.65931276  0.60312640  0.64128811    -0.34700
N354        N  0.66069906  0.61327974  0.62941712    -0.29000
C355        C  0.64862952  0.59737140  0.61982991    -0.05100
C356        C  0.63860792  0.57611227  0.62602018     0.07100
C357        C  0.64568108  0.58061368  0.63970955     0.00900
H358        H  0.64733553  0.60105417  0.60910153     0.08600
H359        H  0.64154096  0.56844345  0.64793894     0.07700
N360        N  0.68659952  0.68235104  0.63064218    -0.36200
N361        N  0.69858627  0.69445316  0.64142289    -0.28300
C362        C  0.69983095  0.71473406  0.64112988    -0.03600
C363        C  0.68799310  0.71541375  0.62964826     0.05000
C364        C  0.67987061  0.69458779  0.62326114     0.03100
H365        H  0.70795056  0.72767027  0.64899084     0.08200
H366        H  0.66909290  0.68845800  0.61418968     0.07100
N367        N  0.66552066  0.87349828  0.60065735    -0.27300
N368        N  0.65392661  0.87626305  0.59063421    -0.35200
C369        C  0.65610372  0.89681903  0.59182852     0.01000
C370        C  0.66968577  0.90759900  0.60315372     0.07000
C371        C  0.67535055  0.89235661  0.60855704    -0.06100
H372        H  0.64812387  0.90332412  0.58505007     0.07700
H373        H  0.68573035  0.89476753  0.61758589     0.08900
Cu374      Cu  0.63491621  0.85192688  0.57593473     0.44200
Cu375      Cu  0.66684131  0.84377588  0.60300096     0.42000
Cu376      Cu  0.63392345  0.79913225  0.57744099     0.43900
N377        N  0.61597534  0.82538444  0.56247639    -0.34700
N378        N  0.61537106  0.80581648  0.56298707    -0.29000
C379        C  0.60098995  0.79201771  0.55314581    -0.05100
C380        C  0.59223662  0.80355664  0.54612668     0.07100
C381        C  0.60214553  0.82464998  0.55231394     0.00900
H382        H  0.59710634  0.77484478  0.55130174     0.08600
H383        H  0.59928948  0.83837933  0.54977059     0.07700
N384        N  0.65282178  0.79618129  0.59344012    -0.36200
N385        N  0.66456436  0.81208871  0.60276946    -0.28300
C386        C  0.67390294  0.80414242  0.61183732    -0.03600
C387        C  0.66778462  0.78223614  0.60803451     0.05000
C388        C  0.65446984  0.77785042  0.59631622     0.03100
H389        H  0.68406716  0.81347127  0.62069164     0.08200
H390        H  0.64629325  0.76228118  0.59040319     0.07100
O391        O  0.84922239  0.66914308  0.73486873    -0.73000
O392        O  0.80726213  0.66892041  0.76459881    -0.74000
O393        O  0.84885442  0.66865628  0.76421068    -0.62600
O394        O  0.80776703  0.66995665  0.73515473    -0.71000
O395        O  0.78820446  0.63234205  0.73466623    -0.70500
O396        O  0.82912689  0.63108346  0.76408011    -0.61800
O397        O  0.78782960  0.63131611  0.76402812    -0.74300
O398        O  0.82943943  0.63152103  0.73464121    -0.73100
Cu399      Cu  0.82895036  0.67050752  0.74969547     1.04600
Cu400      Cu  0.80796812  0.63028262  0.74931406     1.04300
C401        C  0.84605262  0.65024196  0.73026165     0.93200
C402        C  0.79099696  0.64993296  0.76903774     0.92400
C403        C  0.84540747  0.64972681  0.76884875     0.84500
C404        C  0.79153492  0.65139712  0.73030755     0.90800
O405        O  0.81181577  0.14830008  0.76181284    -0.73000
O406        O  0.85506910  0.19154730  0.73322484    -0.74000
O407        O  0.85357220  0.19128977  0.76264041    -0.62600
O408        O  0.81419988  0.14912160  0.73236441    -0.71000
O409        O  0.79413165  0.16641821  0.73230019    -0.70500
O410        O  0.83398460  0.20899189  0.76188946    -0.61800
O411        O  0.83493356  0.20875832  0.73268462    -0.74300
O412        O  0.79335467  0.16691452  0.76172011    -0.73100
Cu413      Cu  0.83436814  0.16941394  0.74759663     1.04600
Cu414      Cu  0.81340685  0.18831517  0.74714946     1.04300
C415        C  0.79563099  0.15079485  0.76638071     0.93200
C416        C  0.85141377  0.20669687  0.72825828     0.92400
C417        C  0.85030079  0.20710989  0.76682803     0.84500
C418        C  0.79813649  0.15145820  0.72743115     0.90800
O419        O  0.36532252  0.16277232  0.73663250    -0.73000
O420        O  0.36418861  0.20562703  0.76460779    -0.74000
O421        O  0.36134608  0.16293458  0.76593581    -0.62600
O422        O  0.36765679  0.20526072  0.73512084    -0.71000
O423        O  0.32999227  0.18754750  0.73340672    -0.70500
O424        O  0.32370314  0.14548875  0.76418034    -0.61800
O425        O  0.32654159  0.18827554  0.76301650    -0.74300
O426        O  0.32768614  0.14504036  0.73470343    -0.73100
Cu427      Cu  0.36590847  0.18477949  0.75063913     1.04600
Cu428      Cu  0.32565102  0.16601216  0.74876114     1.04300
C429        C  0.34682202  0.14720924  0.73122672     0.93200
C430        C  0.34528886  0.20356933  0.76841760     0.92400
C431        C  0.34153811  0.14751990  0.76989490     0.84500
C432        C  0.34971609  0.20279751  0.72926287     0.90800
N433        N  0.34310622  0.28356311  0.82743420    -0.27300
N434        N  0.36357220  0.28685282  0.83034021    -0.35200
C435        C  0.36824603  0.27455618  0.82150837     0.01000
C436        C  0.34988900  0.26293097  0.81268285     0.07000
C437        C  0.33423690  0.26896972  0.81674561    -0.06100
H438        H  0.38404639  0.27443324  0.82133832     0.07700
H439        H  0.31785181  0.26359502  0.81205090     0.08900
Cu440      Cu  0.38564686  0.30953596  0.84522730     0.44200
Cu441      Cu  0.32869071  0.30045728  0.83721097     0.42000
Cu442      Cu  0.37105297  0.35111144  0.85438256     0.43900
N443        N  0.40716552  0.33841969  0.85678518    -0.34700
N444        N  0.40254948  0.35472387  0.85877070    -0.29000
C445        C  0.41985274  0.37180666  0.86571004    -0.05100
C446        C  0.43599272  0.36582110  0.86876756     0.07100
C447        C  0.42729374  0.34445362  0.86285353     0.00900
H448        H  0.42020761  0.38716493  0.86874584     0.08600
H449        H  0.43476585  0.33382099  0.86322137     0.07700
N450        N  0.33675360  0.34116579  0.85365815    -0.36200
N451        N  0.32094796  0.32240539  0.84757475    -0.28300
C452        C  0.30040118  0.32027268  0.84976440    -0.03600
C453        C  0.30354105  0.33851900  0.85766741     0.05000
C454        C  0.32674872  0.35136854  0.85993463     0.03100
H455        H  0.28436474  0.30628534  0.84613829     0.08200
H456        H  0.33566125  0.36676639  0.86596787     0.07100
N457        N  0.94012912  0.29691508  0.81962796    -0.27300
N458        N  0.92281713  0.29954814  0.82304189    -0.35200
C459        C  0.90436650  0.28504302  0.81569317     0.01000
C460        C  0.91024949  0.27265442  0.80722429     0.07000
C461        C  0.93302043  0.28053009  0.80994906    -0.06100
H462        H  0.88799568  0.28396896  0.81624570     0.07700
H463        H  0.94371704  0.27511625  0.80504529     0.08900
Cu464      Cu  0.92449526  0.32329245  0.83687871     0.44200
Cu465      Cu  0.97270649  0.31630462  0.82809594     0.42000
Cu466      Cu  0.97922925  0.36301665  0.84977525     0.43900
N467        N  0.92982748  0.34894102  0.85032482    -0.34700
N468        N  0.95029239  0.36424011  0.85477817    -0.29000
C469        C  0.94831053  0.37837568  0.86355168    -0.05100
C470        C  0.92542186  0.37149309  0.86475002     0.07100
C471        C  0.91422275  0.35276152  0.85619729     0.00900
H472        H  0.96242327  0.39230687  0.86890936     0.08600
H473        H  0.89603246  0.34237948  0.85458445     0.07700
N474        N  0.00444198  0.35496530  0.84686253    -0.36200
N475        N  0.00221274  0.33788514  0.83925661    -0.28300
C476        C  0.02082439  0.33603817  0.84108328    -0.03600
C477        C  0.03533048  0.35277310  0.85022943     0.05000
C478        C  0.02439336  0.36437161  0.85367465     0.03100
H479        H  0.02312088  0.32285544  0.83663297     0.08200
H480        H  0.02996202  0.37787769  0.86118366     0.07100
N481        N  0.15077200  0.37053122  0.88217881    -0.27300
N482        N  0.14621073  0.38040410  0.89243307    -0.35200
C483        C  0.12614171  0.37909882  0.88990328     0.01000
C484        C  0.11765589  0.36794929  0.87745337     0.07000
C485        C  0.13374673  0.36281136  0.87282742    -0.06100
H486        H  0.11846831  0.38611116  0.89651978     0.07700
H487        H  0.13316725  0.35421296  0.86331698     0.08900
Cu488      Cu  0.16787871  0.39606507  0.90923170     0.44200
Cu489      Cu  0.18012449  0.36815978  0.88142702     0.42000
Cu490      Cu  0.22217625  0.39884289  0.90844842     0.43900
N491        N  0.19249597  0.41155919  0.92467319    -0.34700
N492        N  0.21256695  0.41296940  0.92423060    -0.29000
C493        C  0.22437008  0.42351133  0.93574163    -0.05100
C494        C  0.21106839  0.42889715  0.94388027     0.07100
C495        C  0.19098405  0.42109098  0.93651570     0.00900
H496        H  0.24118035  0.42651569  0.93816110     0.08600
H497        H  0.17623202  0.42201647  0.93960460     0.07700
N498        N  0.22632844  0.38021626  0.89288937    -0.36200
N499        N  0.21078197  0.36840975  0.88337511    -0.28300
C500        C  0.21836418  0.35746892  0.87541921    -0.03600
C501        C  0.23983533  0.36282560  0.88001426     0.05000
C502        C  0.24427982  0.37734734  0.89108956     0.03100
H503        H  0.20895683  0.34646922  0.86686932     0.08200
H504        H  0.25953090  0.38533929  0.89737660     0.07100
N505        N  0.56234770  0.13897036  0.93619391    -0.36600
N506        N  0.58615633  0.12472031  0.91759981    -0.57200
N507        N  0.54664284  0.10422562  0.89958873    -0.36600
N508        N  0.52348495  0.11970161  0.91776292    -0.57200
C509        C  0.58380525  0.15111297  0.94123687     0.26900
C510        C  0.55049003  0.14830941  0.94127019     0.26900
C511        C  0.56186334  0.10242389  0.89156222     0.26900
C512        C  0.52947440  0.10149560  0.89126045     0.26900
C513        C  0.60109919  0.13226247  0.92824372     0.35600
C514        C  0.59248993  0.11324541  0.90910433     0.35600
C515        C  0.51416522  0.12422566  0.92871061     0.35600
C516        C  0.50619859  0.10657668  0.90909754     0.35600
C517        C  0.58556257  0.16820719  0.94974697    -0.21900
C518        C  0.56456832  0.16651081  0.94972179    -0.21900
C519        C  0.55402385  0.09797903  0.87802353    -0.21900
C520        C  0.53380732  0.09782420  0.87778560    -0.21900
C521        C  0.61722100  0.12589574  0.92639238    -0.23000
C522        C  0.61180087  0.11388570  0.91424797    -0.23000
C523        C  0.49076542  0.11379903  0.92706227    -0.23000
C524        C  0.48570906  0.10263587  0.91458267    -0.23000
C525        C  0.60139437  0.14624596  0.93907343    -0.18300
C526        C  0.52691440  0.13984119  0.93925202    -0.18300
C527        C  0.50909886  0.10023773  0.89569211    -0.18300
C528        C  0.58201893  0.10351862  0.89630414    -0.18300
H529        H  0.60038672  0.18051039  0.95547662     0.14600
H530        H  0.56009489  0.17725007  0.95545995     0.14600
H531        H  0.56194743  0.09508074  0.86919323     0.14600
H532        H  0.52317038  0.09465542  0.86877155     0.14600
H533        H  0.63159678  0.12980210  0.93299038     0.12900
H534        H  0.62121985  0.10673841  0.90964589     0.12900
H535        H  0.47874624  0.11480651  0.93389951     0.12900
H536        H  0.46898750  0.09322908  0.90990242     0.12900
H537        H  0.55550446  0.12360960  0.93099104     0.26100
H538        H  0.54668704  0.10453314  0.91032682     0.26100
N539        N  0.70956898  0.19865201  0.98910474    -0.27300
N540        N  0.70860373  0.21718863  0.98702124    -0.35200
C541        C  0.68994098  0.21195771  0.97956213     0.01000
C542        C  0.67872368  0.18906426  0.97644782     0.07000
C543        C  0.69160420  0.18109492  0.98277885    -0.06100
H544        H  0.68579956  0.22427479  0.97575213     0.07700
H545        H  0.68883596  0.16411405  0.98217407     0.08900
Cu546      Cu  0.73580352  0.24948523  0.99069529     0.44200
Cu547      Cu  0.73676430  0.19976061  0.99971046     0.42000
Cu548      Cu  0.78994130  0.25370527  0.99738271     0.43900
N549        N  0.76696361  0.27768141  0.98590960    -0.34700
N550        N  0.78654966  0.27817086  0.98672171    -0.29000
C551        C  0.80255434  0.29657303  0.97992664    -0.05100
C552        C  0.79260789  0.30842796  0.97475045     0.07100
C553        C  0.77009625  0.29601841  0.97897008     0.00900
H554        H  0.81997644  0.30064670  0.97852080     0.08600
H555        H  0.75662409  0.29943427  0.97661302     0.07700
N556        N  0.78433367  0.22853756  0.01155145    -0.36200
N557        N  0.76498814  0.20888830  0.01233462    -0.28300
C558        C  0.76586895  0.19738939  0.02337115    -0.03600
C559        C  0.78665248  0.21043931  0.02991843     0.05000
C560        C  0.79794295  0.23007510  0.02213094     0.03100
H561        H  0.75196821  0.18113788  0.02672794     0.08200
H562        H  0.81448623  0.24473269  0.02425979     0.07100
N563        N  0.70749249  0.06080462  0.81964432    -0.27300
N564        N  0.70712544  0.07828046  0.82513338    -0.35200
C565        C  0.72231766  0.09723296  0.81846614     0.01000
C566        C  0.73262494  0.09126301  0.80833479     0.07000
C567        C  0.72284719  0.06808558  0.80936954    -0.06100
H568        H  0.72490407  0.11392990  0.82040526     0.07700
H569        H  0.72594030  0.05719101  0.80276410     0.08900
Cu570      Cu  0.68372905  0.07511275  0.83996082     0.44200
Cu571      Cu  0.68588587  0.02764519  0.82530420     0.42000
Cu572      Cu  0.63569686  0.01773923  0.84305948     0.43900
N573        N  0.65416085  0.06658130  0.85073328    -0.34700
N574        N  0.63591441  0.04605950  0.85067438    -0.29000
C575        C  0.61899434  0.04655370  0.85747513    -0.05100
C576        C  0.62708612  0.06834580  0.86235581     0.07100
C577        C  0.64951452  0.08053299  0.85790792     0.00900
H578        H  0.60211740  0.03199759  0.85887170     0.08600
H579        H  0.66161900  0.09827918  0.85973313     0.07700
N580        N  0.64339250  0.99263634  0.83933945    -0.36200
N581        N  0.66213025  0.99639542  0.83295591    -0.28300
C582        C  0.66420885  0.97799392  0.83414919    -0.03600
C583        C  0.64583857  0.96190115  0.84163437     0.05000
C584        C  0.63302873  0.97172084  0.84481176     0.03100
H585        H  0.67888632  0.97711374  0.83082262     0.08200
H586        H  0.61838878  0.96492232  0.85159274     0.07100
N587        N  0.71291916  0.65523529  0.82803022    -0.27300
N588        N  0.70328186  0.63294339  0.82874720    -0.35200
C589        C  0.71232616  0.62596637  0.81891742     0.01000
C590        C  0.72868185  0.64476462  0.81174661     0.07000
C591        C  0.72850973  0.66300629  0.81781526    -0.06100
H592        H  0.70769524  0.60851221  0.81732562     0.07700
H593        H  0.73933459  0.68071622  0.81520053     0.08900
Cu594      Cu  0.67971018  0.61307425  0.84382886     0.44200
Cu595      Cu  0.70472153  0.67412134  0.84119143     0.42000
Cu596      Cu  0.66745977  0.64232642  0.87007352     0.43900
N597        N  0.65899138  0.59680732  0.86081660    -0.34700
N598        N  0.65526924  0.60767014  0.87081414    -0.29000
C599        C  0.64215398  0.59263215  0.88057702    -0.05100
C600        C  0.63713580  0.57116460  0.87646875     0.07100
C601        C  0.64807534  0.57455299  0.86384605     0.00900
H602        H  0.63668423  0.59700527  0.88998647     0.08600
H603        H  0.64816261  0.56176427  0.85733622     0.07700
N604        N  0.67866984  0.67618413  0.86588750    -0.36200
N605        N  0.69196395  0.68778244  0.85537879    -0.28300
C606        C  0.69407959  0.70843993  0.85504890    -0.03600
C607        C  0.68162078  0.70984978  0.86590857     0.05000
C608        C  0.67208021  0.68913795  0.87251091     0.03100
H609        H  0.70315090  0.72108235  0.84715581     0.08200
H610        H  0.66023199  0.68347692  0.88107633     0.07100
N611        N  0.62887834  0.84967475  0.87619684    -0.27300
N612        N  0.61646521  0.85359539  0.88502792    -0.35200
C613        C  0.61640472  0.87235972  0.88102448     0.01000
C614        C  0.62939274  0.88056723  0.86913263     0.07000
C615        C  0.63704560  0.86580055  0.86636955    -0.06100
H616        H  0.60788440  0.87972426  0.88649245     0.07700
H617        H  0.64816333  0.86697652  0.85802409     0.08900
Cu618      Cu  0.60087078  0.83377058  0.90240665     0.44200
Cu619      Cu  0.63508556  0.82324757  0.87807729     0.42000
Cu620      Cu  0.60968232  0.78613467  0.90734713     0.43900
N621        N  0.58725406  0.81120680  0.91888271    -0.34700
N622        N  0.59023498  0.79372300  0.92054525    -0.29000
C623        C  0.57938851  0.78254997  0.93212579    -0.05100
C624        C  0.56919116  0.79355068  0.93809292     0.07100
C625        C  0.57454250  0.81166263  0.92941695     0.00900
H626        H  0.57928123  0.76770764  0.93603454     0.08600
H627        H  0.56970191  0.82433306  0.93069856     0.07700
N628        N  0.63047128  0.78258181  0.89294419    -0.36200
N629        N  0.63963779  0.79620412  0.88219398    -0.28300
C630        C  0.65180654  0.78946177  0.87475329    -0.03600
C631        C  0.65028760  0.77069699  0.88113237     0.05000
C632        C  0.63665362  0.76679315  0.89263507     0.03100
H633        H  0.66094769  0.79752948  0.86534840     0.08200
H634        H  0.63137878  0.75328236  0.90011139     0.07100
N635        N  0.83868246  0.42540157  0.93534860    -0.36600
N636        N  0.86026367  0.40503764  0.91936780    -0.57200
N637        N  0.88215420  0.44507401  0.90204592    -0.36600
N638        N  0.86240937  0.46621481  0.91876036    -0.57200
C639        C  0.83281594  0.40682849  0.94314685     0.26900
C640        C  0.83429981  0.43942177  0.94289188     0.26900
C641        C  0.89310888  0.43435839  0.89775863     0.26900
C642        C  0.89419761  0.46665276  0.89741524     0.26900
C643        C  0.84609076  0.38697672  0.92723512     0.35600
C644        C  0.86872181  0.39732311  0.90950612     0.35600
C645        C  0.84936192  0.47182876  0.92634389     0.35600
C646        C  0.87129027  0.48149177  0.90839400     0.35600
C647        C  0.82395685  0.40878193  0.95564908    -0.21900
C648        C  0.82493301  0.42931942  0.95549538    -0.21900
C649        C  0.91227832  0.44928262  0.89022791    -0.21900
C650        C  0.91297123  0.46969010  0.89002023    -0.21900
C651        C  0.84587704  0.36777237  0.92248832    -0.23000
C652        C  0.86005449  0.37428706  0.91120237    -0.23000
C653        C  0.85025980  0.49097185  0.92091337    -0.23000
C654        C  0.86390603  0.49692572  0.90944311    -0.23000
C655        C  0.83433926  0.38772525  0.93912819    -0.18300
C656        C  0.83755827  0.46063016  0.93851865    -0.18300
C657        C  0.88775619  0.48315444  0.89882738    -0.18300
C658        C  0.88535215  0.41106350  0.89958244    -0.18300
H659        H  0.81737317  0.39664502  0.96403592     0.14600
H660        H  0.81923481  0.43596126  0.96372254     0.14600
H661        H  0.92431762  0.44573500  0.88521338     0.14600
H662        H  0.92562089  0.48491515  0.88480344     0.14600
H663        H  0.83656488  0.35082617  0.92674355     0.12900
H664        H  0.86385700  0.36338105  0.90510293     0.12900
H665        H  0.84199400  0.49978245  0.92480871     0.12900
H666        H  0.86834174  0.51134316  0.90283954     0.12900
H667        H  0.84334102  0.42733933  0.92502325     0.26100
H668        H  0.86593091  0.43740444  0.90628301     0.26100
N669        N  0.71624868  0.52022870  0.99789905    -0.27300
N670        N  0.71553326  0.50106294  0.99490325    -0.35200
C671        C  0.69615188  0.48740815  0.98804049     0.01000
C672        C  0.68427590  0.49866223  0.98627662     0.07000
C673        C  0.69744795  0.51939133  0.99277966    -0.06100
H674        H  0.69208011  0.47136300  0.98347485     0.07700
H675        H  0.69443219  0.53343436  0.99288428     0.08900
Cu676      Cu  0.74372212  0.49718961  0.99576550     0.44200
Cu677      Cu  0.74433624  0.54749002  0.00717959     0.42000
Cu678      Cu  0.79731977  0.54931281  0.00129701     0.43900
N679        N  0.77472324  0.50288996  0.98836045    -0.34700
N680        N  0.79385708  0.52267037  0.98915372    -0.29000
C681        C  0.80960167  0.52214333  0.98101458    -0.05100
C682        C  0.80005303  0.50083862  0.97497765     0.07100
C683        C  0.77795648  0.48910640  0.98001100     0.00900
H684        H  0.82658004  0.53641790  0.97938896     0.08600
H685        H  0.76486523  0.47199363  0.97741110     0.07700
N686        N  0.79424665  0.57136646  0.01469266    -0.36200
N687        N  0.77476748  0.57077942  0.01668040    -0.28300
C688        C  0.77799290  0.58665587  0.02604093    -0.03600
C689        C  0.80056512  0.59773707  0.03021601     0.05000
C690        C  0.81037857  0.58758216  0.02282231     0.03100
H691        H  0.76475113  0.58964286  0.02969272     0.08200
H692        H  0.82788444  0.59156615  0.02336232     0.07100
N693        N  0.56973581  0.42949165  0.94549277    -0.36600
N694        N  0.58916067  0.47089401  0.92950394    -0.57200
N695        N  0.55158071  0.44919067  0.90974551    -0.36600
N696        N  0.53301479  0.40704246  0.92522259    -0.57200
C697        C  0.59061086  0.44137480  0.95136863     0.26900
C698        C  0.56109330  0.40751286  0.94899710     0.26900
C699        C  0.56582191  0.46838163  0.90268493     0.26900
C700        C  0.53473735  0.43512541  0.90098183     0.26900
C701        C  0.60294861  0.47887044  0.94068683     0.35600
C702        C  0.59403912  0.48904397  0.92158620     0.35600
C703        C  0.52554415  0.39053587  0.93492943     0.35600
C704        C  0.51560892  0.40082260  0.91620822     0.35600
C705        C  0.59513145  0.42680857  0.95882751    -0.21900
C706        C  0.57652313  0.40542819  0.95729814    -0.21900
C707        C  0.55768543  0.46660931  0.88931498    -0.21900
C708        C  0.53790721  0.44587505  0.88832400    -0.21900
C709        C  0.61658736  0.50222618  0.93993494    -0.23000
C710        C  0.61093601  0.50868687  0.92783718    -0.23000
C711        C  0.50342742  0.37364296  0.93197786    -0.23000
C712        C  0.49724310  0.37999470  0.92006340    -0.23000
C713        C  0.60537414  0.46511614  0.95060180    -0.18300
C714        C  0.53896936  0.38954076  0.94579185    -0.18300
C715        C  0.51623758  0.41315027  0.90422904    -0.18300
C716        C  0.58522353  0.48797403  0.90815705    -0.18300
H717        H  0.61022963  0.43111994  0.96481177     0.14600
H718        H  0.57446540  0.39010709  0.96191384     0.14600
H719        H  0.56495942  0.47915771  0.88117374     0.14600
H720        H  0.52719910  0.43945795  0.87924013     0.14600
H721        H  0.62974728  0.51334536  0.94711850     0.12900
H722        H  0.61882811  0.52582669  0.92389697     0.12900
H723        H  0.49296680  0.35810304  0.93765185     0.12900
H724        H  0.48103562  0.37026120  0.91483996     0.12900
H725        H  0.56085238  0.43626107  0.94073763     0.26100
H726        H  0.55208165  0.44666915  0.92027415     0.26100
N727        N  0.47921701  0.19639626  0.99077192    -0.27300
N728        N  0.49710687  0.21465129  0.98564106    -0.35200
C729        C  0.50763881  0.20827624  0.97653725     0.01000
C730        C  0.49571849  0.18488442  0.97577365     0.07000
C731        C  0.47782030  0.17786076  0.98498603    -0.06100
H732        H  0.52223613  0.21985906  0.97038677     0.07700
H733        H  0.46427641  0.16064925  0.98690612     0.08900
Cu734      Cu  0.50377726  0.24731391  0.98876009     0.44200
Cu735      Cu  0.45658266  0.19803810  0.00433141     0.42000
Cu736      Cu  0.45852480  0.25223234  0.00400114     0.43900
N737        N  0.50086878  0.27575749  0.98669798    -0.34700
N738        N  0.48347177  0.27710182  0.99152227    -0.29000
C739        C  0.48470955  0.29606400  0.98657772    -0.05100
C740        C  0.50390050  0.30721565  0.97828092     0.07100
C741        C  0.51376597  0.29388184  0.97870200     0.00900
H742        H  0.47216337  0.30094817  0.98850251     0.08600
H743        H  0.52869899  0.29663726  0.97309983     0.07700
N744        N  0.43775612  0.22541672  0.01696320    -0.36200
N745        N  0.43720733  0.20584503  0.01717497    -0.28300
C746        C  0.42342821  0.19298352  0.02746866    -0.03600
C747        C  0.41495644  0.20506153  0.03405459     0.05000
C748        C  0.42430806  0.22549365  0.02710407     0.03100
H749        H  0.42049823  0.17642058  0.03025317     0.08200
H750        H  0.42228267  0.23975907  0.02958241     0.07100
N751        N  0.99073183  0.68150586  0.84981243    -0.27300
N752        N  0.99536341  0.66660642  0.85529603    -0.35200
C753        C  0.01442604  0.67757165  0.86293538     0.01000
C754        C  0.02219328  0.70045504  0.86226545     0.07000
C755        C  0.00682949  0.70244855  0.85388757    -0.06100
H756        H  0.02153037  0.66940070  0.86902522     0.07700
H757        H  0.00698994  0.71787543  0.85127700     0.08900
Cu758      Cu  0.97397888  0.63190888  0.85442635     0.44200
Cu759      Cu  0.96175845  0.67228532  0.83790034     0.42000
Cu760      Cu  0.91753230  0.61347260  0.84291835     0.43900
N761        N  0.94681282  0.59988249  0.85831636    -0.34700
N762        N  0.92565368  0.59358839  0.85489931    -0.29000
C763        C  0.91154548  0.57298269  0.86025772    -0.05100
C764        C  0.92453838  0.56589375  0.86727453     0.07100
C765        C  0.94683302  0.58336974  0.86578508     0.00900
H766        H  0.89319004  0.56395306  0.85924297     0.08600
H767        H  0.96192282  0.58426881  0.87008788     0.07700
N768        N  0.91491129  0.63516867  0.82918921    -0.36200
N769        N  0.93092219  0.65655440  0.82715488    -0.28300
C770        C  0.92410430  0.66519067  0.81695916    -0.03600
C771        C  0.90288038  0.64834907  0.81239849     0.05000
C772        C  0.89759427  0.62962626  0.82039845     0.03100
H773        H  0.93405119  0.68224766  0.81294728     0.08200
H774        H  0.88245793  0.61301138  0.81967837     0.07100
N775        N  0.30789538  0.00892614  0.85698246    -0.27300
N776        N  0.32280024  0.00703683  0.86478530    -0.35200
C777        C  0.31171958  0.98888803  0.87308448     0.01000
C778        C  0.28870899  0.97873343  0.87041256     0.07000
C779        C  0.28679562  0.99179427  0.86013225    -0.06100
H780        H  0.31988321  0.98313116  0.88026682     0.07700
H781        H  0.27129721  0.98879173  0.85513830     0.08900
Cu782      Cu  0.35773189  0.02782299  0.86326816     0.44200
Cu783      Cu  0.31766001  0.03423660  0.84190743     0.42000
Cu784      Cu  0.37927813  0.06622659  0.83495368     0.43900
N785        N  0.39212528  0.04876427  0.85947269    -0.34700
N786        N  0.40028333  0.06267407  0.84880361    -0.29000
C787        C  0.42318133  0.07465417  0.84959596    -0.05100
C788        C  0.42963535  0.06793469  0.86141668     0.07100
C789        C  0.40951513  0.05148714  0.86737311     0.00900
H790        H  0.43417727  0.08777407  0.84239006     0.08600
H791        H  0.40763392  0.04275190  0.87704519     0.07700
N792        N  0.35558796  0.07104371  0.82460050    -0.36200
N793        N  0.33343209  0.06017121  0.82716608    -0.28300
C794        C  0.32375362  0.06900701  0.81906160    -0.03600
C795        C  0.34069689  0.08618875  0.81113520     0.05000
C796        C  0.36055419  0.08689717  0.81489693     0.03100
H797        H  0.30584527  0.06366962  0.81913248     0.08200
H798        H  0.37752983  0.09850971  0.81109858     0.07100
N799        N  0.19036156  0.86215912  0.90106300    -0.27300
N800        N  0.20485037  0.86678337  0.91136525    -0.35200
C801        C  0.22404913  0.88656269  0.90876486     0.01000
C802        C  0.22146808  0.89489329  0.89627235     0.07000
C803        C  0.19989569  0.87898086  0.89169270    -0.06100
H804        H  0.23881357  0.89430712  0.91546991     0.07700
H805        H  0.19173812  0.87955868  0.88222534     0.08900
Cu806      Cu  0.19798388  0.84599207  0.92843979     0.44200
Cu807      Cu  0.15879705  0.83262322  0.89977234     0.42000
Cu808      Cu  0.14504564  0.79187137  0.92713749     0.43900
N809        N  0.18786153  0.82128740  0.94355213    -0.34700
N810        N  0.16867149  0.80149191  0.94301179    -0.29000
C811        C  0.16824431  0.78854687  0.95358948    -0.05100
C812        C  0.18811756  0.80078777  0.96112036     0.07100
C813        C  0.20010811  0.82150123  0.95451925     0.00900
H814        H  0.15493126  0.77115457  0.95527035     0.08600
H815        H  0.21701078  0.83526100  0.95703530     0.07700
N816        N  0.12521337  0.78536519  0.90954531    -0.36200
N817        N  0.13017168  0.80034021  0.89954828    -0.28300
C818        C  0.11460201  0.79071341  0.88939765    -0.03600
C819        C  0.09913112  0.76864033  0.89320771     0.05000
C820        C  0.10635500  0.76581534  0.90603254     0.03100
H821        H  0.11471431  0.79904902  0.87986824     0.08200
H822        H  0.09869633  0.75055752  0.91223741     0.07100
N823        N  0.01655898  0.32489617  0.35115915    -0.27300
N824        N  0.01896961  0.33663194  0.36254158    -0.35200
C825        C  0.00077806  0.32477553  0.37073594     0.01000
C826        C  0.98620769  0.30438902  0.36437365     0.07000
C827        C  0.99677272  0.30498541  0.35197818    -0.06100
H828        H  0.99800833  0.33091823  0.38042141     0.07700
H829        H  0.99027261  0.29214031  0.34399196     0.08900
Cu830      Cu  0.04539814  0.36902763  0.36634830     0.44200
Cu831      Cu  0.03970755  0.33713238  0.33471148     0.42000
Cu832      Cu  0.08183835  0.39671509  0.33770182     0.43900
N833        N  0.06767457  0.40344803  0.36573611    -0.34700
N834        N  0.07922215  0.41400209  0.35452715    -0.29000
C835        C  0.08919461  0.43648388  0.35652267    -0.05100
C836        C  0.08421875  0.44028254  0.36983531     0.07100
C837        C  0.07066853  0.41881816  0.37536404     0.00900
H838        H  0.09920527  0.44905295  0.34879082     0.08600
H839        H  0.06321612  0.41458646  0.38558827     0.07700
N840        N  0.08337416  0.37548987  0.32299168    -0.36200
N841        N  0.06749313  0.35398273  0.32131998    -0.28300
C842        C  0.07340062  0.34548168  0.31057584    -0.03600
C843        C  0.09423821  0.36235414  0.30540401     0.05000
C844        C  0.10000277  0.38104565  0.31365859     0.03100
H845        H  0.06332027  0.32825301  0.30685860     0.08200
H846        H  0.11525291  0.39757160  0.31293380     0.07100
N847        N  0.68711480  0.99410494  0.35612025    -0.27300
N848        N  0.67370709  0.99545363  0.36547085    -0.35200
C849        C  0.68544271  0.01517694  0.37232127     0.01000
C850        C  0.70729595  0.02691895  0.36704934     0.07000
C851        C  0.70782470  0.01306092  0.35678634    -0.06100
H852        H  0.67820323  0.02116019  0.38000762     0.07700
H853        H  0.72181270  0.01699613  0.34985259     0.08900
Cu854      Cu  0.63909996  0.97237089  0.36715104     0.44200
Cu855      Cu  0.67512684  0.96787836  0.34172389     0.42000
Cu856      Cu  0.61247915  0.93159255  0.34002790     0.43900
N857        N  0.60414437  0.95068898  0.36579174    -0.34700
N858        N  0.59413774  0.93612702  0.35556686    -0.29000
C859        C  0.57140484  0.92517945  0.35745020    -0.05100
C860        C  0.56691843  0.93316234  0.36951837     0.07100
C861        C  0.58812567  0.94929025  0.37450655     0.00900
H862        H  0.55908354  0.91229541  0.35058656     0.08600
H863        H  0.59166241  0.95923560  0.38384573     0.07700
N864        N  0.63505570  0.92908489  0.32675160    -0.36200
N865        N  0.65753446  0.94186406  0.32744331    -0.28300
C866        C  0.66674289  0.93514469  0.31757262    -0.03600
C867        C  0.64926480  0.91733061  0.31035696     0.05000
C868        C  0.62944286  0.91393981  0.31645667     0.03100
H869        H  0.68483880  0.94246656  0.31589537     0.08200
H870        H  0.61220033  0.90104932  0.31381589     0.07100
N871        N  0.79736361  0.15485432  0.38554121    -0.27300
N872        N  0.78043697  0.15276140  0.39330320    -0.35200
C873        C  0.76216983  0.13196453  0.39147613     0.01000
C874        C  0.76787936  0.12043822  0.38210430     0.07000
C875        C  0.79029467  0.13541898  0.37853086    -0.06100
H876        H  0.74612409  0.12549229  0.39685271     0.07700
H877        H  0.80087572  0.13219021  0.37168741     0.08900
Cu878      Cu  0.78337937  0.17770475  0.40668288     0.44200
Cu879      Cu  0.82961235  0.18360529  0.38561422     0.42000
Cu880      Cu  0.83824153  0.22967827  0.40840507     0.43900
N881        N  0.79047952  0.20428364  0.41988825    -0.34700
N882        N  0.81037591  0.22336913  0.42050951    -0.29000
C883        C  0.80949184  0.23657739  0.43051031    -0.05100
C884        C  0.78804973  0.22515983  0.43646666     0.07100
C885        C  0.77647003  0.20478187  0.42946988     0.00900
H886        H  0.82363133  0.25294364  0.43349747     0.08600
H887        H  0.75929742  0.19105156  0.43140335     0.07700
N888        N  0.86359402  0.23055289  0.39596348    -0.36200
N889        N  0.86043256  0.21374003  0.38775624    -0.28300
C890        C  0.87993601  0.21977694  0.38097327    -0.03600
C891        C  0.89613797  0.24140527  0.38510186     0.05000
C892        C  0.88522286  0.24773475  0.39459872     0.03100
H893        H  0.88199515  0.20942185  0.37333531     0.08200
H894        H  0.89231125  0.26388222  0.39983800     0.07100
N895        N  0.29386689  0.35975484  0.31749075    -0.27300
N896        N  0.30334330  0.38209442  0.31797896    -0.35200
C897        C  0.29260016  0.38848117  0.30898241     0.01000
C898        C  0.27563145  0.36936853  0.30245919     0.07000
C899        C  0.27693580  0.35147720  0.30808002    -0.06100
H900        H  0.29655264  0.40575916  0.30750497     0.07700
H901        H  0.26608620  0.33368341  0.30567881     0.08900
Cu902      Cu  0.32963381  0.40363251  0.33115278     0.44200
Cu903      Cu  0.30285403  0.34064628  0.33008539     0.42000
Cu904      Cu  0.34256880  0.37374694  0.35621776     0.43900
N905        N  0.35245135  0.41968662  0.34725465    -0.34700
N906        N  0.35608573  0.40812588  0.35680001    -0.29000
C907        C  0.36902585  0.42217267  0.36690240    -0.05100
C908        C  0.37421778  0.44386789  0.36354371     0.07100
C909        C  0.36353699  0.44169746  0.35091340     0.00900
H910        H  0.37349353  0.41676126  0.37630026     0.08600
H911        H  0.36304376  0.45493574  0.34511053     0.07700
N912        N  0.32880768  0.33938934  0.35477360    -0.36200
N913        N  0.31411378  0.32660138  0.34513625    -0.28300
C914        C  0.30839579  0.30487317  0.34734146    -0.03600
C915        C  0.32013114  0.30432794  0.35893988     0.05000
C916        C  0.33287411  0.32644982  0.36332534     0.03100
H917        H  0.29653877  0.29060914  0.34108834     0.08200
H918        H  0.34423578  0.33270538  0.37213631     0.07100
N919        N  0.28594007  0.94901125  0.32611652    -0.27300
N920        N  0.29724287  0.93807598  0.32559959    -0.35200
C921        C  0.28716019  0.92110599  0.31640521     0.01000
C922        C  0.26857592  0.92133161  0.31091530     0.07000
C923        C  0.26829790  0.93926458  0.31725756    -0.06100
H924        H  0.29246009  0.90897826  0.31425744     0.07700
H925        H  0.25575144  0.94432236  0.31591941     0.08900
Cu926      Cu  0.32354267  0.94420855  0.33881320     0.44200
Cu927      Cu  0.29358570  0.97489599  0.33993925     0.42000
Cu928      Cu  0.32791885  0.97636590  0.36925994     0.43900
N929        N  0.34339540  0.94695381  0.35563925    -0.34700
N930        N  0.34411488  0.95769120  0.36715427    -0.29000
C931        C  0.35698484  0.95466983  0.37648957    -0.05100
C932        C  0.36475898  0.94147439  0.37050469     0.07100
C933        C  0.35586131  0.93698369  0.35726662     0.00900
H934        H  0.36022264  0.96133685  0.38691601     0.08600
H935        H  0.35786242  0.92679326  0.34947961     0.07700
N936        N  0.31484940  0.99782408  0.36695771    -0.36200
N937        N  0.30303180  0.99772149  0.35606305    -0.28300
C938        C  0.29906698  0.01498063  0.35710711    -0.03600
C939        C  0.30877612  0.02641879  0.36925897     0.05000
C940        C  0.31860609  0.01513627  0.37526848     0.03100
H941        H  0.29027004  0.01920659  0.34943113     0.08200
H942        H  0.32852763  0.01972445  0.38469900     0.07100
N943        N  0.32494600  0.14299936  0.39614906    -0.27300
N944        N  0.33261551  0.13738677  0.40710836    -0.35200
C945        C  0.33030937  0.11694917  0.40496422     0.01000
C946        C  0.32077410  0.10938055  0.39203213     0.07000
C947        C  0.31757632  0.12628695  0.38671055    -0.06100
H948        H  0.33563668  0.10843873  0.41215493     0.07700
H949        H  0.31067373  0.12655002  0.37667783     0.08900
Cu950      Cu  0.34728750  0.15841504  0.42405135     0.44200
Cu951      Cu  0.32563078  0.17345630  0.39445056     0.42000
Cu952      Cu  0.35184592  0.21365801  0.42249570     0.43900
N953        N  0.36435848  0.18367229  0.43865427    -0.34700
N954        N  0.36612944  0.20379501  0.43810449    -0.29000
C955        C  0.37946610  0.21658733  0.44859608    -0.05100
C956        C  0.38646183  0.20393378  0.45604709     0.07100
C957        C  0.37653182  0.18315387  0.44946198     0.00900
H958        H  0.38429929  0.23405313  0.45038370     0.08600
H959        H  0.37853793  0.16891369  0.45206141     0.07700
N960        N  0.33753677  0.21959566  0.40509091    -0.36200
N961        N  0.32818317  0.20487478  0.39484651    -0.28300
C962        C  0.32150719  0.21392565  0.38487589    -0.03600
C963        C  0.32683990  0.23535297  0.38902903     0.05000
C964        C  0.33697772  0.23844223  0.40189191     0.03100
H965        H  0.31378360  0.20570154  0.37518301     0.08200
H966        H  0.34400598  0.25350601  0.40825553     0.07100
N967        N  0.42678183  0.86555079  0.43915366    -0.36600
N968        N  0.40785096  0.88564757  0.42186264    -0.57200
N969        N  0.44835344  0.90503249  0.40437639    -0.36600
N970        N  0.46694788  0.88457428  0.42181578    -0.57200
C971        C  0.40475756  0.85405906  0.44322210     0.26900
C972        C  0.43639537  0.85346737  0.44322760     0.26900
C973        C  0.43357150  0.90735431  0.39623300     0.26900
C974        C  0.46508442  0.90644566  0.39614436     0.26900
C975        C  0.39319570  0.87938257  0.43260173     0.35600
C976        C  0.40464163  0.90021821  0.41420628     0.35600
C977        C  0.47438427  0.87812052  0.43284291     0.35600
C978        C  0.48554307  0.89842791  0.41424770     0.35600
C979        C  0.40025668  0.83434053  0.44996952    -0.21900
C980        C  0.42029504  0.83396685  0.44997236    -0.21900
C981        C  0.44109890  0.91058684  0.38263847    -0.21900
C982        C  0.46100752  0.90992739  0.38257578    -0.21900
C983        C  0.38066915  0.89012688  0.43184652    -0.23000
C984        C  0.38787190  0.90330192  0.42012190    -0.23000
C985        C  0.49788974  0.88811341  0.43239183    -0.23000
C986        C  0.50497408  0.90096026  0.42053956    -0.23000
C987        C  0.38950393  0.86223544  0.44211204    -0.18300
C988        C  0.45984892  0.86095132  0.44213085    -0.18300
C989        C  0.48457650  0.90615564  0.40088482    -0.18300
C990        C  0.41445377  0.90822549  0.40105629    -0.18300
H991        H  0.38436777  0.82184640  0.45469208     0.14600
H992        H  0.42288564  0.82114275  0.45471022     0.14600
H993        H  0.43321062  0.91338969  0.37373576     0.14600
H994        H  0.47147910  0.91214864  0.37362653     0.14600
H995        H  0.36723126  0.88805684  0.43873405     0.12900
H996        H  0.38105443  0.91342086  0.41616098     0.12900
H997        H  0.50866093  0.88565293  0.43954604     0.12900
H998        H  0.52229529  0.91043872  0.41673847     0.12900
H999        H  0.43558383  0.88216461  0.43554717     0.26100
H1000       H  0.44832702  0.90510308  0.41514131     0.26100
N1001       N  0.50763754  0.72159694  0.49227915    -0.27300
N1002       N  0.49733789  0.72730546  0.48295040    -0.35200
C1003       C  0.48705529  0.71071795  0.47361743     0.01000
C1004       C  0.49017643  0.69307390  0.47740368     0.07000
C1005       C  0.50344923  0.70057488  0.48933114    -0.06100
H1006       H  0.47776354  0.71143071  0.46474309     0.07700
H1007       H  0.50955086  0.69149319  0.49541449     0.08900
Cu1008     Cu  0.49635386  0.75658672  0.48344402     0.44200
Cu1009     Cu  0.52808572  0.74458055  0.50743578     0.42000
Cu1010     Cu  0.53602679  0.80282355  0.50351712     0.43900
N1011       N  0.49843391  0.78736371  0.48293966    -0.34700
N1012       N  0.51423474  0.80545149  0.48949460    -0.29000
C1013       C  0.51307807  0.82359256  0.48524341    -0.05100
C1014       C  0.49551074  0.81623424  0.47564497     0.07100
C1015       C  0.48648852  0.79314547  0.47465778     0.00900
H1016       H  0.52458217  0.84084482  0.48852401     0.08600
H1017       H  0.47294424  0.78151353  0.46785528     0.07700
N1018       N  0.55285903  0.79351256  0.51775989    -0.36200
N1019       N  0.54994644  0.77295918  0.51921489    -0.28300
C1020       C  0.56360021  0.77343544  0.52944200    -0.03600
C1021       C  0.57555907  0.79518789  0.53471913     0.05000
C1022       C  0.56831343  0.80743568  0.52709450     0.03100
H1023       H  0.56464019  0.75893937  0.53281537     0.08200
H1024       H  0.57385495  0.82520816  0.52822854     0.07100
N1025       N  0.14141886  0.57103387  0.44468189    -0.36600
N1026       N  0.13066727  0.53559959  0.42504367    -0.57200
N1027       N  0.11834385  0.55960626  0.40461938    -0.36600
N1028       N  0.12710910  0.59408473  0.42517189    -0.57200
C1029       C  0.14458721  0.55674862  0.45277759     0.26900
C1030       C  0.14168754  0.58699628  0.45299191     0.26900
C1031       C  0.11019755  0.53935627  0.39823242     0.26900
C1032       C  0.10951500  0.57086891  0.39801856     0.26900
C1033       C  0.14161286  0.52990819  0.43445592     0.35600
C1034       C  0.12706706  0.52243460  0.41384005     0.35600
C1035       C  0.13665254  0.61031845  0.43499904     0.35600
C1036       C  0.12374703  0.60391975  0.41401026     0.35600
C1037       C  0.14670069  0.56359834  0.46645350    -0.21900
C1038       C  0.14483559  0.58267754  0.46659675    -0.21900
C1039       C  0.09668089  0.53809354  0.38712921    -0.21900
C1040       C  0.09632206  0.55797463  0.38696788    -0.21900
C1041       C  0.14478266  0.51288754  0.42923871    -0.23000
C1042       C  0.13525885  0.50790483  0.41628666    -0.23000
C1043       C  0.13899655  0.63042776  0.43012922    -0.23000
C1044       C  0.13050409  0.62628054  0.41692673    -0.23000
C1045       C  0.14777936  0.53905245  0.44796096    -0.18300
C1046       C  0.14298338  0.60724937  0.44840762    -0.18300
C1047       C  0.11339516  0.59265892  0.40150694    -0.18300
C1048       C  0.11529720  0.52231132  0.40174106    -0.18300
H1049       H  0.15002763  0.55608884  0.47533242     0.14600
H1050       H  0.14666880  0.59285589  0.47560398     0.14600
H1051       H  0.08799058  0.52429755  0.37984112     0.14600
H1052       H  0.08724677  0.56234747  0.37957863     0.14600
H1053       H  0.15276504  0.50461351  0.43429889     0.12900
H1054       H  0.13456316  0.49506892  0.40945440     0.12900
H1055       H  0.14591302  0.64641328  0.43554107     0.12900
H1056       H  0.12959571  0.63845325  0.41023935     0.12900
H1057       H  0.14290211  0.57214694  0.43401063     0.26100
H1058       H  0.13071555  0.56610567  0.41227083     0.26100
N1059       N  0.28545295  0.79961907  0.49490282    -0.27300
N1060       N  0.28147613  0.78304755  0.48631256    -0.35200
C1061       C  0.29726937  0.79085228  0.47633493     0.01000
C1062       C  0.31172932  0.81380738  0.47829807     0.07000
C1063       C  0.30378307  0.81884341  0.49027047    -0.06100
H1064       H  0.29772424  0.78059042  0.46798033     0.07700
H1065       H  0.31050123  0.83527424  0.49508357     0.08900
Cu1066     Cu  0.25283309  0.75164242  0.48686946     0.44200
Cu1067     Cu  0.26471743  0.79365306  0.51223967     0.42000
Cu1068     Cu  0.21395420  0.73519249  0.51488024     0.43900
N1069       N  0.22214462  0.72202496  0.48702850    -0.34700
N1070       N  0.20808197  0.71477810  0.49766446    -0.29000
C1071       C  0.19050809  0.69391639  0.49473123    -0.05100
C1072       C  0.19372402  0.68811595  0.48150661     0.07100
C1073       C  0.21376856  0.70655015  0.47692262     0.00900
H1074       H  0.17664704  0.68368293  0.50173855     0.08600
H1075       H  0.22203589  0.70839637  0.46705967     0.07700
N1076       N  0.22250968  0.76117446  0.52905360    -0.36200
N1077       N  0.24056128  0.78188026  0.52821155    -0.28300
C1078       C  0.24015854  0.79420381  0.53894459    -0.03600
C1079       C  0.22090906  0.78075609  0.54680228     0.05000
C1080       C  0.21016176  0.75995000  0.54023342     0.03100
H1081       H  0.25275465  0.81182147  0.54073561     0.08200
H1082       H  0.19436870  0.74502872  0.54325694     0.07100
N1083       N  0.42683501  0.57172551  0.44164958    -0.36600
N1084       N  0.41276062  0.53174627  0.42457195    -0.57200
N1085       N  0.44508312  0.56045771  0.40328144    -0.36600
N1086       N  0.46053642  0.59955300  0.42122846    -0.57200
C1087       C  0.41186565  0.55565770  0.45037991     0.26900
C1088       C  0.43855663  0.59121054  0.44892252     0.26900
C1089       C  0.43779251  0.53975777  0.39778736     0.26900
C1090       C  0.46517135  0.57512394  0.39716263     0.26900
C1091       C  0.39670796  0.52215424  0.43456366     0.35600
C1092       C  0.40620884  0.51626456  0.41429566     0.35600
C1093       C  0.46264428  0.61612464  0.42968916     0.35600
C1094       C  0.47264857  0.60983667  0.40977536     0.35600
C1095       C  0.41372324  0.56515544  0.46333169    -0.21900
C1096       C  0.43087771  0.58744964  0.46248909    -0.21900
C1097       C  0.45290127  0.54142321  0.38760935    -0.21900
C1098       C  0.47048235  0.56358456  0.38748930    -0.21900
C1099       C  0.38064284  0.50010590  0.43092428    -0.23000
C1100       C  0.38664707  0.49637851  0.41811478    -0.23000
C1101       C  0.47596605  0.63711745  0.42351068    -0.23000
C1102       C  0.48234236  0.63311745  0.41086057    -0.23000
C1103       C  0.39547059  0.53316381  0.44666756    -0.18300
C1104       C  0.45462656  0.61268443  0.44342209    -0.18300
C1105       C  0.47819395  0.59881713  0.39955663    -0.18300
C1106       C  0.41758841  0.51955896  0.40149756    -0.18300
H1107       H  0.40369896  0.55701471  0.47245629     0.14600
H1108       H  0.43644843  0.59968612  0.47081579     0.14600
H1109       H  0.45169950  0.52805340  0.38107587     0.14600
H1110       H  0.48521047  0.57046715  0.38077640     0.14600
H1111       H  0.36586029  0.48806460  0.43678212     0.12900
H1112       H  0.37746382  0.48083936  0.41222900     0.12900
H1113       H  0.48117525  0.65360519  0.42785720     0.12900
H1114       H  0.49361124  0.64588074  0.40354765     0.12900
H1115       H  0.42689068  0.57009345  0.43102187     0.26100
H1116       H  0.43563773  0.56455643  0.40979227     0.26100
N1117       N  0.27925093  0.47155025  0.48959498    -0.27300
N1118       N  0.27798039  0.48837221  0.48393003    -0.35200
C1119       C  0.29695691  0.50151692  0.47673789     0.01000
C1120       C  0.31061650  0.49202641  0.47714406     0.07000
C1121       C  0.29886917  0.47298764  0.48552965    -0.06100
H1122       H  0.30008650  0.51647343  0.47111130     0.07700
H1123       H  0.30381798  0.46077040  0.48819305     0.08900
Cu1124     Cu  0.24933724  0.49096477  0.48372534     0.44200
Cu1125     Cu  0.25421742  0.44921769  0.50313796     0.42000
Cu1126     Cu  0.20619869  0.46078653  0.50777196     0.43900
N1127       N  0.21992554  0.49219624  0.48365022    -0.34700
N1128       N  0.20410015  0.48232369  0.49322348    -0.29000
C1129       C  0.18789829  0.48773947  0.49095364    -0.05100
C1130       C  0.19376554  0.50136807  0.47918499     0.07100
C1131       C  0.21407644  0.50346512  0.47481614     0.00900
H1132       H  0.17297838  0.48215464  0.49736214     0.08600
H1133       H  0.22400548  0.51258899  0.46585116     0.07700
N1134       N  0.21121418  0.43775751  0.51931523    -0.36200
N1135       N  0.22812810  0.43371049  0.51761629    -0.28300
C1136       C  0.22573449  0.41785516  0.52677095    -0.03600
C1137       C  0.20635681  0.41140715  0.53452204     0.05000
C1138       C  0.19757923  0.42433916  0.52953009     0.03100
H1139       H  0.23721753  0.41137932  0.52762590     0.08200
H1140       H  0.18235925  0.42402143  0.53304201     0.07100
N1141       N  0.65353949  0.71969270  0.32345323    -0.27300
N1142       N  0.63435728  0.71868422  0.32708855    -0.35200
C1143       C  0.63121115  0.73287085  0.31905684     0.01000
C1144       C  0.64919807  0.74325209  0.30984542     0.07000
C1145       C  0.66304654  0.73447826  0.31292671    -0.06100
H1146       H  0.61671057  0.73522773  0.31973653     0.07700
H1147       H  0.67875389  0.73840181  0.30782082     0.08900
Cu1148     Cu  0.61272745  0.69736588  0.34237905     0.44200
Cu1149     Cu  0.66590900  0.70124341  0.33336618     0.42000
Cu1150     Cu  0.62940648  0.66176085  0.36001029     0.43900
N1151       N  0.59243158  0.67298692  0.35680138    -0.34700
N1152       N  0.59825710  0.65939254  0.36286101    -0.29000
C1153       C  0.58120674  0.64491690  0.37114033    -0.05100
C1154       C  0.56384914  0.64975041  0.37037026     0.07100
C1155       C  0.57159118  0.66770406  0.36120638     0.00900
H1156       H  0.58145186  0.63185668  0.37729699     0.08600
H1157       H  0.56275658  0.67630815  0.35796717     0.07700
N1158       N  0.66243732  0.66956842  0.35623959    -0.36200
N1159       N  0.67568000  0.68370889  0.34649968    -0.28300
C1160       C  0.69634486  0.68574634  0.34729640    -0.03600
C1161       C  0.69598912  0.67232022  0.35806654     0.05000
C1162       C  0.67430148  0.66230785  0.36351172     0.03100
H1163       H  0.71070380  0.69663349  0.34077210     0.08200
H1164       H  0.66776369  0.65094919  0.37228196     0.07100
N1165       N  0.06466490  0.71456317  0.32458492    -0.27300
N1166       N  0.07750730  0.70521815  0.32405147    -0.35200
C1167       C  0.09403113  0.71621699  0.31458592     0.01000
C1168       C  0.09151647  0.73329917  0.30881283     0.07000
C1169       C  0.07267857  0.73170928  0.31538862    -0.06100
H1170       H  0.10742008  0.71258512  0.31242429     0.07700
H1171       H  0.06567873  0.74260509  0.31384971     0.08900
Cu1172     Cu  0.07394405  0.67981489  0.33736484     0.44200
Cu1173     Cu  0.03800934  0.70476884  0.33868180     0.42000
Cu1174     Cu  0.03938838  0.67275250  0.36767944     0.43900
N1175       N  0.07246462  0.66115728  0.35467522    -0.34700
N1176       N  0.06152382  0.66047358  0.36611264    -0.29000
C1177       C  0.06567557  0.64908412  0.37586968    -0.05100
C1178       C  0.07944588  0.64166263  0.37027111     0.07100
C1179       C  0.08336600  0.64964640  0.35676712     0.00900
H1180       H  0.05894446  0.64624786  0.38627533     0.08600
H1181       H  0.09346467  0.64735073  0.34902499     0.07700
N1182       N  0.01441193  0.68125049  0.36522001    -0.36200
N1183       N  0.01372181  0.69284531  0.35448694    -0.28300
C1184       C  0.99462572  0.69401513  0.35528229    -0.03600
C1185       C  0.98264248  0.68247727  0.36702473     0.05000
C1186       C  0.99574588  0.67462711  0.37306877     0.03100
H1187       H  0.98938814  0.70193991  0.34760483     0.08200
H1188       H  0.99150070  0.66399461  0.38214889     0.07100
N1189       N  0.85728082  0.65515552  0.38589311    -0.27300
N1190       N  0.85948784  0.64242668  0.39532840    -0.35200
C1191       C  0.88024614  0.64485807  0.39429647     0.01000
C1192       C  0.89183896  0.65987415  0.38372106     0.07000
C1193       C  0.87678989  0.66607557  0.37854744    -0.06100
H1194       H  0.88645899  0.63629683  0.40079233     0.07700
H1195       H  0.87983451  0.67768399  0.37012936     0.08900
Cu1196     Cu  0.83482331  0.62252932  0.40955554     0.44200
Cu1197     Cu  0.82754730  0.65668738  0.38386903     0.42000
Cu1198     Cu  0.78288362  0.62267641  0.40965818     0.43900
N1199       N  0.80954459  0.60484900  0.42392164    -0.34700
N1200       N  0.79012125  0.60472958  0.42409628    -0.29000
C1201       C  0.77755459  0.59211146  0.43488240    -0.05100
C1202       C  0.78982931  0.58404096  0.44178382     0.07100
C1203       C  0.80999850  0.59246331  0.43454155     0.00900
H1204       H  0.76092571  0.58931426  0.43759780     0.08600
H1205       H  0.82411657  0.59001222  0.43687872     0.07700
N1206       N  0.77986533  0.64201230  0.39413879    -0.36200
N1207       N  0.79562370  0.65403365  0.38475220    -0.28300
C1208       C  0.78742762  0.66365585  0.37611331    -0.03600
C1209       C  0.76563558  0.65747901  0.38034962     0.05000
C1210       C  0.76141725  0.64381237  0.39176885     0.03100
H1211       H  0.79656447  0.67420273  0.36735073     0.08200
H1212       H  0.74588436  0.63543747  0.39777917     0.07100
O1213       O  0.21257819  0.38088980  0.22784991    -0.73000
O1214       O  0.16930678  0.38078158  0.25664986    -0.74000
O1215       O  0.21252023  0.38342390  0.25712201    -0.62600
O1216       O  0.16974734  0.37862166  0.22690429    -0.71000
O1217       O  0.15220514  0.34114422  0.22764826    -0.70500
O1218       O  0.19433051  0.34591451  0.25844470    -0.61800
O1219       O  0.15112026  0.34349724  0.25694208    -0.74300
O1220       O  0.19495593  0.34340156  0.22919903    -0.73100
Cu1221     Cu  0.19157928  0.38224630  0.24209425     1.04600
Cu1222     Cu  0.17251759  0.34222589  0.24312217     1.04300
C1223       C  0.21074592  0.36208986  0.22419062     0.93200
C1224       C  0.15320277  0.36197901  0.26142152     0.92400
C1225       C  0.21043217  0.36536418  0.26237090     0.84500
C1226       C  0.15447735  0.35924875  0.22233552     0.90800
O1227       O  0.63745674  0.84572020  0.26209588    -0.73000
O1228       O  0.64237235  0.80608192  0.23288946    -0.74000
O1229       O  0.63946511  0.80550649  0.26240219    -0.62600
O1230       O  0.63983960  0.84634405  0.23307770    -0.71000
O1231       O  0.67748187  0.86756728  0.23432220    -0.70500
O1232       O  0.67694255  0.82391552  0.26299305    -0.61800
O1233       O  0.68006908  0.82720760  0.23336537    -0.74300
O1234       O  0.67514674  0.86507449  0.26376614    -0.73100
Cu1235     Cu  0.63855475  0.82520292  0.24756563     1.04600
Cu1236     Cu  0.67878370  0.84669265  0.24868558     1.04300
C1237       C  0.65567357  0.86170623  0.26752027     0.93200
C1238       C  0.66188712  0.81052465  0.22837645     0.92400
C1239       C  0.65779348  0.80763628  0.26730969     0.84500
C1240       C  0.65848242  0.86352679  0.22914787     0.90800
N1241       N  0.00463319  0.32319888  0.14688331    -0.27300
N1242       N  0.99735922  0.33742767  0.14435506    -0.35200
C1243       C  0.97670336  0.32604816  0.13838227     0.01000
C1244       C  0.97075992  0.30363579  0.13705470     0.07000
C1245       C  0.98880185  0.30235766  0.14253852    -0.06100
H1246       H  0.96717445  0.33370439  0.13470497     0.07700
H1247       H  0.99055375  0.28754857  0.14300762     0.08900
Cu1248     Cu  0.01742524  0.37221364  0.14663929     0.44200
Cu1249     Cu  0.03644113  0.33330346  0.15521146     0.42000
Cu1250     Cu  0.07780169  0.39175718  0.14921871     0.43900
N1251       N  0.04300081  0.40483156  0.14197465    -0.34700
N1252       N  0.06480642  0.41111371  0.14162839    -0.29000
C1253       C  0.07653375  0.43159033  0.13566559    -0.05100
C1254       C  0.06147628  0.43874746  0.13221589     0.07100
C1255       C  0.04036322  0.42139914  0.13652632     0.00900
H1256       H  0.09463384  0.44030997  0.13357493     0.08600
H1257       H  0.02410290  0.42036872  0.13528012     0.07700
N1258       N  0.08457180  0.37043463  0.16075661    -0.36200
N1259       N  0.06916521  0.34903443  0.16328237    -0.28300
C1260       C  0.07745918  0.34080864  0.17281073    -0.03600
C1261       C  0.09911443  0.35787603  0.17643814     0.05000
C1262       C  0.10311196  0.37638926  0.16855326     0.03100
H1263       H  0.06786262  0.32417207  0.17744951     0.08200
H1264       H  0.11769457  0.39338335  0.16922075     0.07100
N1265       N  0.68229961  0.99308561  0.14167553    -0.27300
N1266       N  0.66939473  0.99066761  0.13087077    -0.35200
C1267       C  0.68063510  0.00876773  0.12256739     0.01000
C1268       C  0.70168513  0.02316573  0.12842417     0.07000
C1269       C  0.70222878  0.01266233  0.14050264    -0.06100
H1270       H  0.67370061  0.01161206  0.11322308     0.07700
H1271       H  0.71582026  0.01904848  0.14805974     0.08900
Cu1272     Cu  0.63609182  0.96449812  0.12901694     0.44200
Cu1273     Cu  0.67107015  0.97059186  0.15794323     0.42000
Cu1274     Cu  0.60931868  0.93359634  0.16035101     0.43900
N1275       N  0.60130949  0.94458096  0.13155755    -0.34700
N1276       N  0.59127196  0.93517423  0.14338889    -0.29000
C1277       C  0.56863497  0.92629602  0.14192364    -0.05100
C1278       C  0.56421367  0.92988500  0.12839580     0.07100
C1279       C  0.58543993  0.94137507  0.12218481     0.00900
H1280       H  0.55639236  0.91793178  0.15013277     0.08600
H1281       H  0.58919148  0.94721878  0.11159444     0.07700
N1282       N  0.63271051  0.93182959  0.17343493    -0.36200
N1283       N  0.65505906  0.94513602  0.17235552    -0.28300
C1284       C  0.66537126  0.93838222  0.18140430    -0.03600
C1285       C  0.64876832  0.91994200  0.18857218     0.05000
C1286       C  0.62825460  0.91624647  0.18328774     0.03100
H1287       H  0.68362474  0.94582504  0.18231649     0.08200
H1288       H  0.61137139  0.90271531  0.18605334     0.07100
N1289       N  0.79701770  0.14480724  0.10265023    -0.27300
N1290       N  0.78261011  0.13991980  0.09227874    -0.35200
C1291       C  0.76436000  0.11923937  0.09431767     0.01000
C1292       C  0.76748470  0.11069075  0.10653026     0.07000
C1293       C  0.78836678  0.12731444  0.11156600    -0.06100
H1294       H  0.74986056  0.11103388  0.08742832     0.07700
H1295       H  0.79666856  0.12673722  0.12097091     0.08900
Cu1296     Cu  0.78805686  0.16158899  0.07593915     0.44200
Cu1297     Cu  0.82736605  0.17521252  0.10421798     0.42000
Cu1298     Cu  0.83752669  0.21773073  0.07791396     0.43900
N1299       N  0.79562086  0.18641135  0.06126256    -0.34700
N1300       N  0.81356557  0.20712366  0.06191622    -0.29000
C1301       C  0.81330312  0.21896413  0.05083900    -0.05100
C1302       C  0.79426194  0.20497310  0.04290157     0.07100
C1303       C  0.78347821  0.18451293  0.04985763     0.00900
H1304       H  0.82597054  0.23645470  0.04875346     0.08600
H1305       H  0.76792607  0.16929587  0.04685991     0.07700
N1306       N  0.85953048  0.22295350  0.09442694    -0.36200
N1307       N  0.85579366  0.20732766  0.10378009    -0.28300
C1308       C  0.87307090  0.21584780  0.11290640    -0.03600
C1309       C  0.88846001  0.23793246  0.10919081     0.05000
C1310       C  0.87939102  0.24191221  0.09742645     0.03100
H1311       H  0.87425341  0.20667049  0.12166743     0.08200
H1312       H  0.88661724  0.25749470  0.09155435     0.07100
N1313       N  0.30013984  0.35807341  0.17267162    -0.27300
N1314       N  0.30784701  0.38007392  0.17207374    -0.35200
C1315       C  0.29510443  0.38495164  0.18037737     0.01000
C1316       C  0.27824358  0.36503993  0.18635226     0.07000
C1317       C  0.28201375  0.34832629  0.18121312    -0.06100
H1318       H  0.29759712  0.40173718  0.18172471     0.07700
H1319       H  0.27202268  0.33033209  0.18327288     0.08900
Cu1320     Cu  0.33411117  0.40220475  0.15910115     0.44200
Cu1321     Cu  0.31469332  0.34254367  0.16161301     0.42000
Cu1322     Cu  0.36695366  0.38032773  0.14299000     0.43900
N1323       N  0.36038941  0.42051790  0.14515004    -0.34700
N1324       N  0.37352189  0.41322012  0.14011144    -0.29000
C1325       C  0.38882538  0.42898156  0.13144117    -0.05100
C1326       C  0.38474834  0.44683834  0.13061185     0.07100
C1327       C  0.36653925  0.44076477  0.13948507     0.00900
H1328       H  0.40142312  0.42711798  0.12574836     0.08600
H1329       H  0.35784406  0.45002866  0.14133889     0.07700
N1330       N  0.35210371  0.34521197  0.14342309    -0.36200
N1331       N  0.33280049  0.33145061  0.14990971    -0.28300
C1332       C  0.32682279  0.30984979  0.14717118    -0.03600
C1333       C  0.34313958  0.31004024  0.13858389     0.05000
C1334       C  0.35890250  0.33270425  0.13641074     0.03100
H1335       H  0.31147539  0.29510210  0.15089658     0.08200
H1336       H  0.37379246  0.33958173  0.12983703     0.07100
N1337       N  0.29637202  0.94763310  0.17848702    -0.27300
N1338       N  0.30087066  0.93129242  0.17620320    -0.35200
C1339       C  0.28690805  0.91319647  0.18393820     0.01000
C1340       C  0.27292668  0.91840160  0.19140326     0.07000
C1341       C  0.27933903  0.94035143  0.18775541    -0.06100
H1342       H  0.28745212  0.89771239  0.18446971     0.07700
H1343       H  0.27272142  0.95052469  0.19189027     0.08900
Cu1344     Cu  0.32707331  0.93497712  0.16369143     0.44200
Cu1345     Cu  0.31490976  0.97941469  0.16953802     0.42000
Cu1346     Cu  0.36834400  0.99206513  0.15338658     0.43900
N1347       N  0.35553189  0.94323811  0.15194111    -0.34700
N1348       N  0.37140605  0.96422111  0.14884472    -0.29000
C1349       C  0.38669912  0.96364483  0.14033892    -0.05100
C1350       C  0.37982287  0.94118384  0.13775073     0.07100
C1351       C  0.36008534  0.92876187  0.14535189     0.00900
H1352       H  0.40086532  0.97843840  0.13564983     0.08600
H1353       H  0.34908606  0.91052705  0.14543035     0.07700
N1354       N  0.35602600  0.01415668  0.15357937    -0.36200
N1355       N  0.33630976  0.00928496  0.15913181    -0.28300
C1356       C  0.33168237  0.02551586  0.15565394    -0.03600
C1357       C  0.34933964  0.04133397  0.14757634     0.05000
C1358       C  0.36445192  0.03362713  0.14642402     0.03100
H1359       H  0.31600285  0.02511156  0.15811210     0.08200
H1360       H  0.37959422  0.04076317  0.14005970     0.07100
N1361       N  0.34881089  0.14415946  0.11041174    -0.27300
N1362       N  0.35817725  0.13921200  0.10003515    -0.35200
C1363       C  0.35927480  0.12071570  0.10327093     0.01000
C1364       C  0.35014043  0.11355679  0.11630977     0.07000
C1365       C  0.34365390  0.12878909  0.12054624    -0.06100
H1366       H  0.36685688  0.11345066  0.09678604     0.07700
H1367       H  0.33633326  0.12904111  0.13042301     0.08900
Cu1368     Cu  0.37056084  0.15841962  0.08225378     0.44200
Cu1369     Cu  0.34515877  0.17268516  0.11062482     0.42000
Cu1370     Cu  0.36951327  0.21030549  0.08097091     0.43900
N1371       N  0.38337676  0.18083817  0.06586525    -0.34700
N1372       N  0.38320721  0.20002012  0.06541453    -0.29000
C1373       C  0.39383727  0.21130992  0.05382545    -0.05100
C1374       C  0.40102305  0.19858116  0.04667734     0.07100
C1375       C  0.39406064  0.17935075  0.05458564     0.00900
H1376       H  0.39664922  0.22782215  0.05102410     0.08600
H1377       H  0.39715044  0.16562406  0.05254737     0.07700
N1378       N  0.35498747  0.21709326  0.09777066    -0.36200
N1379       N  0.34597163  0.20349279  0.10855909    -0.28300
C1380       C  0.33931739  0.21363138  0.11786006    -0.03600
C1381       C  0.34441069  0.23455620  0.11265164     0.05000
C1382       C  0.35431220  0.23613303  0.09991532     0.03100
H1383       H  0.33215322  0.20671016  0.12790106     0.08200
H1384       H  0.36140385  0.25050563  0.09296847     0.07100
N1385       N  0.27273298  0.79520193  0.01011598    -0.27300
N1386       N  0.27509131  0.77730422  0.01138584    -0.35200
C1387       C  0.29396100  0.78311938  0.01879435     0.01000
C1388       C  0.30365638  0.80561930  0.02267652     0.07000
C1389       C  0.28971200  0.81270324  0.01696166    -0.06100
H1390       H  0.29948547  0.77145965  0.02178455     0.07700
H1391       H  0.29123728  0.82911315  0.01813324     0.08900
Cu1392     Cu  0.24977914  0.74470415  0.00641559     0.44200
Cu1393     Cu  0.24619105  0.79510515  0.99971464     0.42000
Cu1394     Cu  0.19684501  0.74075759  0.99593660     0.43900
N1395       N  0.21816975  0.71563829  0.00829676    -0.34700
N1396       N  0.19883528  0.71467190  0.00510828    -0.29000
C1397       C  0.18133801  0.69535561  0.01009641    -0.05100
C1398       C  0.19007691  0.68362496  0.01675614     0.07100
C1399       C  0.21346075  0.69686402  0.01536218     0.00900
H1400       H  0.16369801  0.69098794  0.00978147     0.08600
H1401       H  0.22612658  0.69401311  0.02016537     0.07700
N1402       N  0.20021402  0.76926917  0.98649462    -0.36200
N1403       N  0.21860892  0.78950930  0.98781198    -0.28300
C1404       C  0.21676937  0.80412691  0.97940643    -0.03600
C1405       C  0.19617351  0.79242934  0.97249196     0.05000
C1406       C  0.18608188  0.77039489  0.97727206     0.03100
H1407       H  0.22990656  0.82165872  0.97796993     0.08200
H1408       H  0.17023713  0.75598231  0.97378346     0.07100
N1409       N  0.13619615  0.56925519  0.05720364    -0.36600
N1410       N  0.11653116  0.59114729  0.07281728    -0.57200
N1411       N  0.09565483  0.55313735  0.09151704    -0.36600
N1412       N  0.11600257  0.53148604  0.07595403    -0.57200
C1413       C  0.14840397  0.59078859  0.05257209     0.26900
C1414       C  0.14840147  0.55918930  0.05438183     0.26900
C1415       C  0.09294547  0.56843590  0.09883966     0.26900
C1416       C  0.09128812  0.53591467  0.10016427     0.26900
C1417       C  0.12414442  0.60505233  0.06177032     0.35600
C1418       C  0.10392989  0.59731163  0.08034013     0.35600
C1419       C  0.12325815  0.52275881  0.06600842     0.35600
C1420       C  0.10204117  0.51410245  0.08428829     0.35600
C1421       C  0.16859074  0.59449024  0.04672554    -0.21900
C1422       C  0.16864668  0.57452038  0.04794220    -0.21900
C1423       C  0.08622266  0.56057317  0.11220835    -0.21900
C1424       C  0.08481275  0.53989118  0.11298505    -0.21900
C1425       C  0.11611516  0.62000009  0.06214678    -0.23000
C1426       C  0.10340869  0.61519095  0.07401554    -0.23000
C1427       C  0.11370843  0.49965459  0.06793990    -0.23000
C1428       C  0.10060684  0.49423679  0.07966372    -0.23000
C1429       C  0.14098621  0.60660555  0.05266953    -0.18300
C1430       C  0.14064860  0.53598457  0.05639986    -0.18300
C1431       C  0.09211878  0.51631275  0.09661697    -0.18300
C1432       C  0.09517621  0.58871595  0.09358434    -0.18300
H1433       H  0.18177817  0.60989919  0.04194362     0.14600
H1434       H  0.18182159  0.57146542  0.04423061     0.14600
H1435       H  0.08230533  0.56867521  0.12048530     0.14600
H1436       H  0.07961288  0.52907891  0.12201804     0.14600
H1437       H  0.11998159  0.63366484  0.05500910     0.12900
H1438       H  0.09531387  0.62424498  0.07778617     0.12900
H1439       H  0.11666563  0.48810153  0.06190203     0.12900
H1440       H  0.09139559  0.47759469  0.08432484     0.12900
H1441       H  0.11928607  0.56113831  0.06042915     0.26100
H1442       H  0.09817597  0.55328753  0.08092541     0.26100
N1443       N  0.51945975  0.72945532  0.00560639    -0.27300
N1444       N  0.51743392  0.73815419  0.01733647    -0.35200
C1445       C  0.50937348  0.72203892  0.02714829     0.01000
C1446       C  0.50611654  0.70219581  0.02130308     0.07000
C1447       C  0.51276404  0.70750526  0.00763471    -0.06100
H1448       H  0.50521910  0.72431999  0.03759909     0.07700
H1449       H  0.51193710  0.69605937  0.99964473     0.08900
Cu1450     Cu  0.52163634  0.77011998  0.01876133     0.44200
Cu1451     Cu  0.52930447  0.74774292  0.98731943     0.42000
Cu1452     Cu  0.52538524  0.79882763  0.98638974     0.43900
N1453       N  0.51446457  0.79584450  0.01686681    -0.34700
N1454       N  0.51407245  0.80527126  0.00501147    -0.29000
C1455       C  0.50452799  0.81807631  0.00719293    -0.05100
C1456       C  0.49876432  0.81662610  0.02108823     0.07100
C1457       C  0.50559167  0.80259324  0.02686525     0.00900
H1458       H  0.50120074  0.82701851  0.99916816     0.08600
H1459       H  0.50315243  0.79669930  0.03745703     0.07700
N1460       N  0.53869266  0.78866746  0.97026134    -0.36200
N1461       N  0.54006604  0.77010540  0.97079505    -0.28300
C1462       C  0.55060150  0.76887925  0.95936840    -0.03600
C1463       C  0.55621084  0.78752014  0.95117487     0.05000
C1464       C  0.54833942  0.79970668  0.95836622     0.03100
H1465       H  0.55439408  0.75561835  0.95736022     0.08200
H1466       H  0.55013001  0.81575108  0.95539185     0.07100
N1467       N  0.42166204  0.85702468  0.05907359    -0.36600
N1468       N  0.40358262  0.87826439  0.07671846    -0.57200
N1469       N  0.44479312  0.89671086  0.09361936    -0.36600
N1470       N  0.46350166  0.87704337  0.07544061    -0.57200
C1471       C  0.40278465  0.85235850  0.05184747     0.26900
C1472       C  0.43510081  0.85314202  0.05062608     0.26900
C1473       C  0.43530698  0.90839242  0.09861807     0.26900
C1474       C  0.46632196  0.90670410  0.09854847     0.26900
C1475       C  0.38454136  0.86481343  0.06934508     0.35600
C1476       C  0.39715559  0.88645300  0.08739038     0.35600
C1477       C  0.46765721  0.86408357  0.06681928     0.35600
C1478       C  0.47923961  0.88392475  0.08561441     0.35600
C1479       C  0.40404380  0.84493119  0.03869677    -0.21900
C1480       C  0.42451489  0.84564541  0.03788759    -0.21900
C1481       C  0.45101170  0.92607085  0.10684500    -0.21900
C1482       C  0.47048807  0.92484079  0.10693173    -0.21900
C1483       C  0.36600618  0.86488106  0.07518097    -0.23000
C1484       C  0.37398442  0.87849227  0.08667973    -0.23000
C1485       C  0.48633127  0.86297783  0.07142123    -0.23000
C1486       C  0.49368718  0.87556968  0.08332810    -0.23000
C1487       C  0.38390089  0.85340226  0.05702553    -0.18300
C1488       C  0.45576465  0.85437256  0.05438428    -0.18300
C1489       C  0.48177601  0.89901901  0.09635184    -0.18300
C1490       C  0.41214929  0.90202754  0.09731892    -0.18300
H1491       H  0.39147977  0.83937097  0.03052405     0.14600
H1492       H  0.43064747  0.84066556  0.02902242     0.14600
H1493       H  0.44844699  0.93815583  0.11257921     0.14600
H1494       H  0.48582612  0.93589872  0.11268468     0.14600
H1495       H  0.34857874  0.85612183  0.07151979     0.12900
H1496       H  0.36393778  0.88231608  0.09362007     0.12900
H1497       H  0.49402588  0.85422819  0.06661467     0.12900
H1498       H  0.50824650  0.87852868  0.08944784     0.12900
H1499       H  0.42396628  0.86004657  0.06971835     0.26100
H1500       H  0.43600186  0.88089087  0.08875900     0.26100
N1501       N  0.43580270  0.58020433  0.05570721    -0.36600
N1502       N  0.41693855  0.54099205  0.07352427    -0.57200
N1503       N  0.45795211  0.56371191  0.09059033    -0.36600
N1504       N  0.47722134  0.60240079  0.07221628    -0.57200
C1505       C  0.41786145  0.56511852  0.04801413     0.26900
C1506       C  0.44958926  0.59765943  0.04733023     0.26900
C1507       C  0.44801760  0.54225461  0.09550502     0.26900
C1508       C  0.47985653  0.57493835  0.09505256     0.26900
C1509       C  0.39808484  0.53588785  0.06613268     0.35600
C1510       C  0.40985997  0.52708175  0.08461009     0.35600
C1511       C  0.48062504  0.62003298  0.06421020     0.35600
C1512       C  0.49285499  0.61117566  0.08248024     0.35600
C1513       C  0.42030244  0.57305574  0.03456049    -0.21900
C1514       C  0.44036045  0.59362203  0.03412705    -0.21900
C1515       C  0.46380369  0.53979159  0.10319309    -0.21900
C1516       C  0.48381667  0.56045634  0.10301206    -0.21900
C1517       C  0.37891146  0.51854247  0.07249767    -0.23000
C1518       C  0.38638158  0.51294104  0.08422285    -0.23000
C1519       C  0.49862795  0.64006170  0.06933893    -0.23000
C1520       C  0.50655654  0.63442178  0.08079567    -0.23000
C1521       C  0.39828046  0.54567401  0.05322851    -0.18300
C1522       C  0.46899892  0.61806510  0.05168438    -0.18300
C1523       C  0.49570614  0.59831736  0.09291236    -0.18300
C1524       C  0.42456858  0.52558875  0.09431429    -0.18300
H1525       H  0.40852305  0.56515335  0.02605162     0.14600
H1526       H  0.44706365  0.60465740  0.02521562     0.14600
H1527       H  0.46101383  0.52482328  0.10868001     0.14600
H1528       H  0.49940123  0.56439769  0.10829665     0.14600
H1529       H  0.36144712  0.51051815  0.06894360     0.12900
H1530       H  0.37580837  0.49969260  0.09148682     0.12900
H1531       H  0.50568007  0.65693606  0.06509773     0.12900
H1532       H  0.52087665  0.64614845  0.08709057     0.12900
H1533       H  0.43691054  0.58020944  0.06642571     0.26100
H1534       H  0.44945895  0.57103641  0.08600813     0.26100
N1535       N  0.28372606  0.48988725  0.00819036    -0.27300
N1536       N  0.27628721  0.49471367  0.01953237    -0.35200
C1537       C  0.29317443  0.50429114  0.02884675     0.01000
C1538       C  0.31265695  0.50627030  0.02308949     0.07000
C1539       C  0.30600666  0.49684835  0.00992593    -0.06100
H1540       H  0.29149685  0.50994311  0.03899291     0.07700
H1541       H  0.31664326  0.49552272  0.00212997     0.08900
Cu1542     Cu  0.24451533  0.49090880  0.02121016     0.44200
Cu1543     Cu  0.26172973  0.47388977  0.99143300     0.42000
Cu1544     Cu  0.20221978  0.46319330  0.99493615     0.43900
N1545       N  0.21408986  0.49029342  0.02109234    -0.34700
N1546       N  0.19762248  0.47914207  0.01200778    -0.29000
C1547       C  0.18005896  0.48211463  0.01524432    -0.05100
C1548       C  0.18611554  0.49621061  0.02677611     0.07100
C1549       C  0.20791431  0.50114568  0.03000949     0.00900
H1550       H  0.16424252  0.47482779  0.00952173     0.08600
H1551       H  0.21873550  0.51212595  0.03818879     0.07700
N1552       N  0.21450948  0.45348712  0.97804579    -0.36200
N1553       N  0.23553876  0.45725407  0.97682508    -0.28300
C1554       C  0.23741927  0.44900631  0.96455811    -0.03600
C1555       C  0.21677293  0.43978833  0.95767210     0.05000
C1556       C  0.20267241  0.44294510  0.96653165     0.03100
H1557       H  0.25281192  0.44985644  0.96087147     0.08200
H1558       H  0.18506696  0.43797623  0.96474449     0.07100
N1559       N  0.66983797  0.73510710  0.16792707    -0.27300
N1560       N  0.64732227  0.72428023  0.16883139    -0.35200
C1561       C  0.64144180  0.73375803  0.17901914     0.01000
C1562       C  0.66107299  0.75137154  0.18484645     0.07000
C1563       C  0.67876415  0.75169648  0.17755259    -0.06100
H1564       H  0.62408662  0.72855603  0.18179105     0.07700
H1565       H  0.69679750  0.76339910  0.17899025     0.08900
Cu1566     Cu  0.62505642  0.69807073  0.15550928     0.44200
Cu1567     Cu  0.68742627  0.72786305  0.15291810     0.42000
Cu1568     Cu  0.65159779  0.69345479  0.12466305     0.43900
N1569       N  0.60662273  0.67672056  0.13895413    -0.34700
N1570       N  0.61656198  0.67721176  0.12714202    -0.29000
C1571       C  0.60060243  0.66385066  0.11790843    -0.05100
C1572       C  0.57935482  0.65352399  0.12420759     0.07100
C1573       C  0.58400244  0.66215831  0.13765842     0.00900
H1574       H  0.60431871  0.66179217  0.10731806     0.08600
H1575       H  0.57191338  0.65814278  0.14595347     0.07700
N1576       N  0.68634957  0.70567558  0.12563887    -0.36200
N1577       N  0.69962345  0.71829123  0.13587677    -0.28300
C1578       C  0.72089836  0.72235559  0.13361208    -0.03600
C1579       C  0.72093229  0.71150081  0.12147683     0.05000
C1580       C  0.69868477  0.70113418  0.11674888     0.03100
H1581       H  0.73515945  0.73196282  0.14049973     0.08200
H1582       H  0.69176189  0.69034992  0.10774839     0.07100
N1583       N  0.02909395  0.72092549  0.13548346    -0.27300
N1584       N  0.02658496  0.70606672  0.12588866    -0.35200
C1585       C  0.00935888  0.70236915  0.11744693     0.01000
C1586       C  0.00047861  0.71547507  0.12186342     0.07000
C1587       C  0.01341878  0.72707611  0.13334382    -0.06100
H1588       H  0.00314232  0.69031838  0.10900990     0.07700
H1589       H  0.01117633  0.73861136  0.13987423     0.08900
Cu1590     Cu  0.04475376  0.68933033  0.12532912     0.44200
Cu1591     Cu  0.05280451  0.73056637  0.15152898     0.42000
Cu1592     Cu  0.08017545  0.69635073  0.15444125     0.43900
N1593       N  0.06078362  0.67074691  0.12794189    -0.34700
N1594       N  0.07312107  0.67258395  0.13893980    -0.29000
C1595       C  0.08076384  0.65800685  0.13767172    -0.05100
C1596       C  0.07307026  0.64663540  0.12516861     0.07100
C1597       C  0.06044827  0.65519519  0.11931973     0.00900
H1598       H  0.09154916  0.65621120  0.14515117     0.08600
H1599       H  0.05203556  0.65078799  0.10935761     0.07700
N1600       N  0.08669072  0.72307122  0.16758436    -0.36200
N1601       N  0.07711935  0.73564904  0.16647345    -0.28300
C1602       C  0.08569335  0.75171746  0.17638000    -0.03600
C1603       C  0.10133884  0.74910484  0.18410889     0.05000
C1604       C  0.10148102  0.73076876  0.17822675     0.03100
H1605       H  0.08100099  0.76447296  0.17779950     0.08200
H1606       H  0.11168533  0.72358444  0.18142469     0.07100
N1607       N  0.88272061  0.69571889  0.09225510    -0.27300
N1608       N  0.88669913  0.68370147  0.08314214    -0.35200
C1609       C  0.90747641  0.68663438  0.08565362     0.01000
C1610       C  0.91704747  0.70112967  0.09684891     0.07000
C1611       C  0.90087774  0.70660868  0.10069222    -0.06100
H1612       H  0.91483471  0.67827985  0.08000496     0.07700
H1613       H  0.90200997  0.71737874  0.10920461     0.08900
Cu1614     Cu  0.86346458  0.66261438  0.06806727     0.44200
Cu1615     Cu  0.85256486  0.69643790  0.09372189     0.42000
Cu1616     Cu  0.81058746  0.66266275  0.06887542     0.43900
N1617       N  0.83566687  0.64198491  0.05531073    -0.34700
N1618       N  0.81642079  0.64223897  0.05584389    -0.29000
C1619       C  0.80130016  0.62674748  0.04702172    -0.05100
C1620       C  0.81139415  0.61615602  0.04050777     0.07100
C1621       C  0.83324398  0.62623924  0.04598427     0.00900
H1622       H  0.78410057  0.62333435  0.04557453     0.08600
H1623       H  0.84624598  0.62217734  0.04354930     0.07700
N1624       N  0.80538932  0.68146509  0.08358299    -0.36200
N1625       N  0.82087135  0.69411053  0.09289160    -0.28300
C1626       C  0.81211709  0.70353735  0.10123338    -0.03600
C1627       C  0.78997215  0.69630803  0.09699256     0.05000
C1628       C  0.78636348  0.68230914  0.08577456     0.03100
H1629       H  0.82105846  0.71455135  0.10987349     0.08200
H1630       H  0.77083562  0.67297559  0.07982953     0.07100
O1631       O  0.14969766  0.81593235  0.26470180    -0.73000
O1632       O  0.19374775  0.86043411  0.23690349    -0.74000
O1633       O  0.15230182  0.81844149  0.23536112    -0.62600
O1634       O  0.19114796  0.85850383  0.26608012    -0.71000
O1635       O  0.21117998  0.84115903  0.26634071    -0.70500
O1636       O  0.17134303  0.80014177  0.23576649    -0.61800
O1637       O  0.21303301  0.84232957  0.23707715    -0.74300
O1638       O  0.16968163  0.79856333  0.26507755    -0.73100
Cu1639     Cu  0.17102886  0.83892657  0.25079345     1.04600
Cu1640     Cu  0.19196716  0.81989016  0.25110250     1.04300
C1641       C  0.15271749  0.80009054  0.26917953     0.93200
C1642       C  0.21029160  0.85830570  0.23260067     0.92400
C1643       C  0.15571034  0.80303743  0.23062597     0.84500
C1644       C  0.20758064  0.85662022  0.27081074     0.90800
C1645       C  0.13920154  0.77374423  0.19562232    -0.01900
C1646       C  0.11520070  0.76300308  0.19602176     0.07800
C1647       C  0.10452308  0.76534741  0.20790242    -0.02000
C1648       C  0.11772348  0.77844468  0.21921757    -0.02000
C1649       C  0.14171037  0.78882190  0.21890003     0.07900
C1650       C  0.15236825  0.78627985  0.20708119    -0.02200
Br1651     Br  0.18520470  0.80096814  0.20616378    -0.00700
Br1652     Br  0.15436772  0.77273209  0.17900549    -0.00800
Br1653     Br  0.10267175  0.78122761  0.23540145    -0.00800
Br1654     Br  0.07169427  0.74966038  0.20907221    -0.00800
C1655       C  0.97970053  0.72078244  0.10217193    -0.01900
C1656       C  0.97996492  0.71487926  0.11612628     0.07800
C1657       C  0.95997870  0.70653301  0.12414326    -0.02000
C1658       C  0.93952393  0.70269515  0.11800094    -0.02000
C1659       C  0.93900231  0.70757317  0.10382830     0.07900
C1660       C  0.95942655  0.71753141  0.09612754    -0.02200
Br1661     Br  0.95994093  0.72772801  0.07744136    -0.00700
Br1662     Br  0.00726400  0.73355260  0.09130998    -0.00800
Br1663     Br  0.91198884  0.68915808  0.12892857    -0.00800
Br1664     Br  0.96002529  0.69865841  0.14332256    -0.00800
C1665       C  0.75091206  0.70046979  0.12357462    -0.01900
C1666       C  0.73974790  0.70910619  0.11548437     0.07800
C1667       C  0.74574383  0.71422929  0.10139966    -0.02000
C1668       C  0.76218650  0.71015441  0.09538428    -0.02000
C1669       C  0.77313448  0.70125736  0.10343983     0.07900
C1670       C  0.76746523  0.69654407  0.11758390    -0.02200
Br1671     Br  0.78099068  0.68298289  0.12866714    -0.00700
Br1672     Br  0.74270716  0.69253556  0.14274098    -0.00800
Br1673     Br  0.77016048  0.71755818  0.07613541    -0.00800
Br1674     Br  0.73237296  0.72804936  0.09041934    -0.00800
C1675       C  0.55537102  0.62101217  0.10784943    -0.01900
C1676       C  0.55690348  0.63735790  0.11751547     0.07800
C1677       C  0.53724459  0.63902975  0.11984379    -0.02000
C1678       C  0.51682370  0.62483897  0.11259794    -0.02000
C1679       C  0.51621246  0.61026858  0.10210022     0.07900
C1680       C  0.53569267  0.60868186  0.09962495    -0.02200
Br1681     Br  0.53591508  0.59069116  0.08432382    -0.00700
Br1682     Br  0.57932744  0.61392582  0.10627972    -0.00800
Br1683     Br  0.48974650  0.62626054  0.11638297    -0.00800
Br1684     Br  0.53813488  0.66200709  0.13180858    -0.00800
C1685       C  0.34446772  0.53829670  0.03641722    -0.01900
C1686       C  0.33552900  0.51699329  0.02978846     0.07800
C1687       C  0.34781191  0.50547220  0.03052596    -0.02000
C1688       C  0.36855047  0.51503649  0.03790538    -0.02000
C1689       C  0.37678016  0.53575093  0.04498481     0.07900
C1690       C  0.36458820  0.54723813  0.04429048    -0.02200
Br1691     Br  0.37508461  0.57493498  0.05465487    -0.00700
Br1692     Br  0.33010879  0.55621698  0.03423866    -0.00800
Br1693     Br  0.38571188  0.49971519  0.03846941    -0.00800
Br1694     Br  0.33579713  0.47592676  0.02225352    -0.00800
C1695       C  0.49436454  0.84965372  0.02794463    -0.01900
C1696       C  0.48621935  0.82612122  0.02828258     0.07800
C1697       C  0.46674652  0.81176048  0.03632239    -0.02000
C1698       C  0.45662620  0.82101688  0.04466420    -0.02000
C1699       C  0.46547986  0.84454857  0.04478542     0.07900
C1700       C  0.48397218  0.85880287  0.03618936    -0.02200
Br1701     Br  0.49525406  0.89097553  0.03603261    -0.00700
Br1702     Br  0.52042934  0.86974928  0.01682636    -0.00800
Br1703     Br  0.43095267  0.80159786  0.05631599    -0.00800
Br1704     Br  0.45297595  0.77921972  0.03555229    -0.00800
C1705       C  0.50825115  0.66845613  0.02905435    -0.01900
C1706       C  0.49584648  0.67973277  0.02802597     0.07800
C1707       C  0.47387012  0.66986181  0.03387788    -0.02000
C1708       C  0.46510109  0.64974432  0.04160861    -0.02000
C1709       C  0.47758990  0.63854757  0.04273459     0.07900
C1710       C  0.49880006  0.64753374  0.03598494    -0.02200
Br1711     Br  0.51498565  0.63122066  0.03636172    -0.00700
Br1712     Br  0.53888776  0.68239771  0.02190839    -0.00800
Br1713     Br  0.43645280  0.63816954  0.05120763    -0.00800
Br1714     Br  0.45530339  0.68334722  0.03088753    -0.00800
C1715       C  0.10690421  0.62226867  0.10898115    -0.01900
C1716       C  0.08934869  0.60249519  0.10271915     0.07800
C1717       C  0.06646415  0.59613902  0.10487709    -0.02000
C1718       C  0.06111894  0.60985444  0.11299129    -0.02000
C1719       C  0.07870485  0.63051219  0.11855327     0.07900
C1720       C  0.10167750  0.63640435  0.11674384    -0.02200
Br1721     Br  0.12638230  0.66449014  0.12395173    -0.00700
Br1722     Br  0.13825072  0.63015005  0.10662192    -0.00800
Br1723     Br  0.02959531  0.59967032  0.11688869    -0.00800
Br1724     Br  0.04254787  0.56899340  0.09624209    -0.00800
C1725       C  0.17317959  0.50559964  0.04879555    -0.01900
C1726       C  0.17309013  0.50509374  0.03415282     0.07800
C1727       C  0.16210956  0.51474148  0.02681964    -0.02000
C1728       C  0.15070763  0.52392228  0.03407309    -0.02000
C1729       C  0.15197737  0.52548939  0.04866110     0.07900
C1730       C  0.16412292  0.51712273  0.05590442    -0.02200
Br1731     Br  0.16973524  0.52269122  0.07551996    -0.00700
Br1732     Br  0.18412861  0.48917862  0.05944371    -0.00800
Br1733     Br  0.13342804  0.53447626  0.02393816    -0.00800
Br1734     Br  0.16396518  0.51723171  0.00690625    -0.00800
C1735       C  0.32489149  0.80900006  0.04463177    -0.01900
C1736       C  0.32340095  0.81862290  0.03200482     0.07800
C1737       C  0.34097224  0.84065745  0.02833176    -0.02000
C1738       C  0.36001721  0.85257830  0.03702160    -0.02000
C1739       C  0.36236601  0.84205824  0.04890402     0.07900
C1740       C  0.34466873  0.82037266  0.05278648    -0.02200
Br1741     Br  0.34768727  0.80618825  0.06927083    -0.00700
Br1742     Br  0.29941057  0.78105216  0.05145061    -0.00800
Br1743     Br  0.38324350  0.88327024  0.03259696    -0.00800
Br1744     Br  0.34009217  0.85425268  0.01101190    -0.00800
C1745       C  0.18179819  0.66630043  0.04031857    -0.01900
C1746       C  0.17738117  0.66399655  0.02595784     0.07800
C1747       C  0.16017172  0.64317681  0.02049943    -0.02000
C1748       C  0.14773374  0.62458865  0.02933527    -0.02000
C1749       C  0.15283537  0.62667599  0.04356082     0.07900
C1750       C  0.16966093  0.64758465  0.04908541    -0.02200
Br1751     Br  0.17603510  0.65053620  0.06869687    -0.00700
Br1752     Br  0.20360749  0.69527488  0.04821435    -0.00800
Br1753     Br  0.12332003  0.59635754  0.02209576    -0.00800
Br1754     Br  0.15415221  0.63984991  0.00087074    -0.00800
C1755       C  0.23324560  0.89183171  0.19939873    -0.01900
C1756       C  0.25673919  0.90433249  0.20224954     0.07800
C1757       C  0.26499610  0.90227458  0.21518647    -0.02000
C1758       C  0.24987834  0.88699171  0.22508892    -0.02000
C1759       C  0.22628468  0.87432853  0.22224614     0.07900
C1760       C  0.21800792  0.87684000  0.20937985    -0.02200
Br1761     Br  0.18601545  0.85848741  0.20497504    -0.00700
Br1762     Br  0.22209404  0.89487471  0.18165803    -0.00800
Br1763     Br  0.26169565  0.88358925  0.24250633    -0.00800
Br1764     Br  0.29703145  0.92095065  0.21942184    -0.00800
C1765       C  0.36234654  0.08226077  0.14432903    -0.01900
C1766       C  0.34964775  0.05978260  0.13957224     0.07800
C1767       C  0.33727536  0.05487984  0.12712292    -0.02000
C1768       C  0.33731012  0.07243290  0.11953403    -0.02000
C1769       C  0.34969481  0.09498246  0.12440950     0.07900
C1770       C  0.36237755  0.09984973  0.13678526    -0.02200
Br1771     Br  0.38088077  0.13073040  0.14307609    -0.00700
Br1772     Br  0.37982792  0.08886134  0.16116534    -0.00800
Br1773     Br  0.31988074  0.06535327  0.10264404    -0.00800
Br1774     Br  0.32066542  0.02409023  0.12035347    -0.00800
C1775       C  0.39182103  0.93916062  0.11343711    -0.01900
C1776       C  0.38894382  0.93196132  0.12740093     0.07800
C1777       C  0.39327348  0.91464093  0.13128392    -0.02000
C1778       C  0.39974410  0.90417290  0.12126797    -0.02000
C1779       C  0.40311284  0.91173620  0.10746211     0.07900
C1780       C  0.39924377  0.92927237  0.10355208    -0.02200
Br1781     Br  0.40412950  0.93966348  0.08460775    -0.00700
Br1782     Br  0.38448547  0.96157860  0.10742305    -0.00800
Br1783     Br  0.40366765  0.87909527  0.12635109    -0.00800
Br1784     Br  0.39163734  0.90594634  0.15044318    -0.00800
C1785       C  0.35745388  0.28292798  0.13726503    -0.01900
C1786       C  0.34290563  0.29027837  0.13221385     0.07800
C1787       C  0.32835379  0.27891360  0.12095668    -0.02000
C1788       C  0.32872892  0.26059125  0.11459072    -0.02000
C1789       C  0.34297961  0.25293482  0.11981451     0.07900
C1790       C  0.35705294  0.26394055  0.13133832    -0.02200
Br1791     Br  0.37647930  0.25360083  0.13875165    -0.00700
Br1792     Br  0.37831314  0.29923016  0.15214771    -0.00800
Br1793     Br  0.30955981  0.24586618  0.09876404    -0.00800
Br1794     Br  0.30848250  0.28900945  0.11396117    -0.00800
C1795       C  0.40881300  0.48390582  0.09836070    -0.01900
C1796       C  0.41492479  0.50543062  0.10365889     0.07800
C1797       C  0.41148483  0.50778609  0.11777942    -0.02000
C1798       C  0.40246019  0.48885746  0.12665309    -0.02000
C1799       C  0.39583970  0.46708368  0.12136177     0.07900
C1800       C  0.39909825  0.46476710  0.10709501    -0.02200
Br1801     Br  0.38914663  0.43541357  0.09898113    -0.00700
Br1802     Br  0.41351399  0.48063988  0.07897739    -0.00800
Br1803     Br  0.40051221  0.49341944  0.14620827    -0.00800
Br1804     Br  0.41841487  0.53697990  0.12484889    -0.00800
C1805       C  0.72887823  0.04727713  0.11000970    -0.01900
C1806       C  0.71927440  0.04554694  0.12318557     0.07800
C1807       C  0.72628998  0.06524646  0.13120240    -0.02000
C1808       C  0.74224733  0.08664033  0.12582342    -0.02000
C1809       C  0.75177836  0.08831381  0.11262114     0.07900
C1810       C  0.74549849  0.06854333  0.10490145    -0.02200
Br1811     Br  0.76058100  0.07039445  0.08762517    -0.00700
Br1812     Br  0.71976530  0.02047895  0.09899783    -0.00800
Br1813     Br  0.74987094  0.11367067  0.13621404    -0.00800
Br1814     Br  0.71315305  0.06326092  0.14922414    -0.00800
C1815       C  0.54024826  0.93752355  0.11198905    -0.01900
C1816       C  0.54197776  0.92275675  0.12153150     0.07800
C1817       C  0.52289652  0.90072183  0.12349510    -0.02000
C1818       C  0.50263515  0.89384768  0.11605605    -0.02000
C1819       C  0.50210336  0.90771450  0.10549636     0.07900
C1820       C  0.52111763  0.92941835  0.10331413    -0.02200
Br1821     Br  0.52127775  0.94769242  0.08805070    -0.00700
Br1822     Br  0.56291765  0.96941437  0.11138168    -0.00800
Br1823     Br  0.47559563  0.86509374  0.11998882    -0.00800
Br1824     Br  0.52451811  0.87875925  0.13519082    -0.00800
C1825       C  0.93097384  0.26280685  0.10985613    -0.01900
C1826       C  0.90971363  0.25399213  0.11652492     0.07800
C1827       C  0.90881556  0.26044018  0.13027711    -0.02000
C1828       C  0.92896921  0.27615550  0.13712792    -0.02000
C1829       C  0.95007421  0.28549100  0.13030263     0.07900
C1830       C  0.95113663  0.27844587  0.11676778    -0.02200
Br1831     Br  0.98018110  0.29053567  0.10760908    -0.00700
Br1832     Br  0.93258752  0.25304360  0.09137824    -0.00800
Br1833     Br  0.92782590  0.28473044  0.15599957    -0.00800
Br1834     Br  0.87993222  0.24871671  0.13958995    -0.00800
C1835       C  0.05434577  0.45822948  0.11230045    -0.01900
C1836       C  0.06707428  0.45938650  0.12419552     0.07800
C1837       C  0.08671561  0.48017236  0.12772650    -0.02000
C1838       C  0.09512637  0.49867218  0.11863277    -0.02000
C1839       C  0.08276874  0.49722617  0.10660999     0.07900
C1840       C  0.06181950  0.47743900  0.10385746    -0.02200
Br1841     Br  0.04392459  0.47655054  0.08808394    -0.00700
Br1842     Br  0.02778528  0.43027600  0.10654949    -0.00800
Br1843     Br  0.12395052  0.52579656  0.12247940    -0.00800
Br1844     Br  0.10162049  0.48390466  0.14535217    -0.00800
C1845       C  0.67174086  0.80468680  0.20409456    -0.01900
C1846       C  0.66328626  0.79596925  0.21741052     0.07800
C1847       C  0.65538080  0.77292647  0.22013044    -0.02000
C1848       C  0.65465502  0.75841835  0.20952875    -0.02000
C1849       C  0.66253449  0.76693901  0.19611929     0.07900
C1850       C  0.67123366  0.79020870  0.19347743    -0.02200
Br1851     Br  0.68085379  0.80193322  0.17502491    -0.00700
Br1852     Br  0.68342562  0.83633741  0.20025329    -0.00800
Br1853     Br  0.64296019  0.72678467  0.21348431    -0.00800
Br1854     Br  0.64687116  0.76150507  0.23867238    -0.00800
C1855       C  0.66489703  0.91561874  0.21091339    -0.01900
C1856       C  0.65230734  0.90586138  0.19870444     0.07800
C1857       C  0.64301790  0.88254385  0.19618244    -0.02000
C1858       C  0.64477298  0.86872992  0.20624741    -0.02000
C1859       C  0.65758916  0.87844752  0.21841866     0.07900
C1860       C  0.66813173  0.90207402  0.22055951    -0.02200
Br1861     Br  0.68589029  0.91588465  0.23703424    -0.00700
Br1862     Br  0.67643927  0.94725088  0.21489874    -0.00800
Br1863     Br  0.62951124  0.83638324  0.20311455    -0.00800
Br1864     Br  0.62917499  0.86960272  0.17853513    -0.00800
C1865       C  0.12224311  0.34359150  0.18804413    -0.01900
C1866       C  0.11284769  0.35774414  0.18823643     0.07800
C1867       C  0.11628199  0.37158376  0.19982781    -0.02000
C1868       C  0.12937217  0.37156470  0.21106014    -0.02000
C1869       C  0.13944402  0.35794870  0.21078847     0.07900
C1870       C  0.13554884  0.34368558  0.19925849    -0.02200
Br1871     Br  0.14925417  0.32504351  0.19832268    -0.00700
Br1872     Br  0.11772974  0.32486759  0.17206059    -0.00800
Br1873     Br  0.13211352  0.38929666  0.22715169    -0.00800
Br1874     Br  0.10228386  0.39001729  0.20066747    -0.00800
C1875       C  0.24633555  0.37209396  0.19179563    -0.01900
C1876       C  0.25962129  0.36246864  0.19561920     0.07800
C1877       C  0.25561627  0.35135424  0.20852786    -0.02000
C1878       C  0.23949230  0.35108369  0.21779078    -0.02000
C1879       C  0.22721142  0.36188015  0.21425273     0.07900
C1880       C  0.23054580  0.37218662  0.20116295    -0.02200
Br1881     Br  0.21286082  0.38576469  0.19579455    -0.00700
Br1882     Br  0.24827068  0.38355382  0.17327121    -0.00800
Br1883     Br  0.23531158  0.33702838  0.23573496    -0.00800
Br1884     Br  0.27263309  0.33709241  0.21394345    -0.00800
C1885       C  0.11782400  0.77385536  0.30171870    -0.01900
C1886       C  0.10676457  0.75049377  0.29853084     0.07800
C1887       C  0.11073077  0.74358318  0.28558009    -0.02000
C1888       C  0.12571340  0.75982857  0.27598693    -0.02000
C1889       C  0.13642810  0.78315603  0.27910864     0.07900
C1890       C  0.13215642  0.79012602  0.29191278    -0.02200
Br1891     Br  0.14685519  0.82200074  0.29633377    -0.00700
Br1892     Br  0.11514697  0.78370118  0.31996314    -0.00800
Br1893     Br  0.13086534  0.75005655  0.25829351    -0.00800
Br1894     Br  0.09510713  0.71186126  0.28068430    -0.00800
C1895       C  0.95577481  0.68383415  0.38434020    -0.01900
C1896       C  0.95946456  0.67718057  0.37122344     0.07800
C1897       C  0.94083767  0.66522247  0.36212410    -0.02000
C1898       C  0.91885512  0.66029689  0.36600459    -0.02000
C1899       C  0.91524577  0.66706700  0.37905599     0.07900
C1900       C  0.93379303  0.67901901  0.38816251    -0.02200
Br1901     Br  0.92918041  0.68957755  0.40570916    -0.00700
Br1902     Br  0.98077192  0.69973131  0.39711370    -0.00800
Br1903     Br  0.89342747  0.64316061  0.35369458    -0.00800
Br1904     Br  0.94487776  0.65372271  0.34478719    -0.00800
C1905       C  0.63498656  0.75306542  0.28865234    -0.01900
C1906       C  0.65214175  0.75938331  0.29867012     0.07800
C1907       C  0.67165575  0.78119678  0.29820037    -0.02000
C1908       C  0.67407500  0.79671217  0.28775475    -0.02000
C1909       C  0.65633525  0.79089202  0.27794742     0.07900
C1910       C  0.63662684  0.76873791  0.27861970    -0.02200
Br1911     Br  0.61115048  0.75857131  0.26598085    -0.00700
Br1912     Br  0.60947876  0.72222867  0.28822509    -0.00800
Br1913     Br  0.70170363  0.82602935  0.28767052    -0.00800
Br1914     Br  0.69457585  0.79034403  0.31247756    -0.00800
C1915       C  0.73818996  0.65225471  0.36148945    -0.01900
C1916       C  0.74948954  0.66307718  0.37385046     0.07800
C1917       C  0.74402302  0.67793464  0.38058624    -0.02000
C1918       C  0.72641249  0.68091770  0.37544569    -0.02000
C1919       C  0.71498898  0.66990486  0.36317824     0.07900
C1920       C  0.72120187  0.65596235  0.35604646    -0.02200
Br1921     Br  0.70558556  0.64109967  0.33917564    -0.00700
Br1922     Br  0.74510330  0.63143571  0.35239290    -0.00800
Br1923     Br  0.71769597  0.69984276  0.38528777    -0.00800
Br1924     Br  0.76113559  0.69469465  0.39662697    -0.00800
C1925       C  0.54163459  0.63501141  0.39229612    -0.01900
C1926       C  0.54184410  0.63804684  0.37784440     0.07800
C1927       C  0.52099237  0.62918836  0.37060145    -0.02000
C1928       C  0.50018384  0.61719808  0.37776615    -0.02000
C1929       C  0.50007001  0.61265964  0.39198490     0.07900
C1930       C  0.52089482  0.62171227  0.39924691    -0.02200
Br1931     Br  0.52122387  0.61568698  0.41876476    -0.00700
Br1932     Br  0.56958680  0.65019230  0.40286592    -0.00800
Br1933     Br  0.47178637  0.60733242  0.36820309    -0.00800
Br1934     Br  0.52054640  0.63209497  0.35076173    -0.00800
C1935       C  0.37222265  0.51120308  0.46754959    -0.01900
C1936       C  0.37386011  0.52165724  0.45470548     0.07800
C1937       C  0.35444976  0.52067622  0.44890788    -0.02000
C1938       C  0.33335205  0.50850003  0.45555630    -0.02000
C1939       C  0.33202570  0.50019419  0.46914634     0.07900
C1940       C  0.35166354  0.50151221  0.47511054    -0.02200
Br1941     Br  0.35130999  0.49150758  0.49381287    -0.00700
Br1942     Br  0.39816797  0.51033429  0.47473438    -0.00800
Br1943     Br  0.30628604  0.50152512  0.44514520    -0.00800
Br1944     Br  0.35684488  0.53655875  0.43185913    -0.00800
C1945       C  0.07286073  0.60895527  0.38538805    -0.01900
C1946       C  0.08790860  0.62804470  0.37733205     0.07800
C1947       C  0.11114421  0.63435984  0.37647832    -0.02000
C1948       C  0.11898331  0.62148579  0.38337226    -0.02000
C1949       C  0.10430514  0.60364844  0.39222838     0.07900
C1950       C  0.08126569  0.59750694  0.39325479    -0.02200
Br1951     Br  0.06134679  0.57377927  0.40587639    -0.00700
Br1952     Br  0.04044516  0.59746659  0.38533756    -0.00800
Br1953     Br  0.15006159  0.62864115  0.38109571    -0.00800
Br1954     Br  0.13303563  0.66194544  0.36723399    -0.00800
C1955       C  0.17899123  0.63746226  0.45890657    -0.01900
C1956       C  0.15524980  0.62747809  0.45746912     0.07800
C1957       C  0.14379412  0.63699205  0.46427593    -0.02000
C1958       C  0.15627246  0.65693945  0.47214802    -0.02000
C1959       C  0.18002467  0.66652880  0.47393357     0.07900
C1960       C  0.19114209  0.65617935  0.46761493    -0.02200
Br1961     Br  0.22283420  0.66650249  0.47131065    -0.00700
Br1962     Br  0.19520133  0.62614887  0.44831777    -0.00800
Br1963     Br  0.14095117  0.67183187  0.47950682    -0.00800
Br1964     Br  0.11118128  0.62298893  0.46250809    -0.00800
C1965       C  0.19361467  0.53434772  0.46767249    -0.01900
C1966       C  0.18140809  0.51160275  0.47239866     0.07800
C1967       C  0.15767201  0.49853735  0.46986300    -0.02000
C1968       C  0.14638181  0.50828379  0.46307808    -0.02000
C1969       C  0.15896368  0.53016562  0.45732109     0.07900
C1970       C  0.18263964  0.54311477  0.45961655    -0.02200
Br1971     Br  0.20031632  0.57258578  0.45112132    -0.00700
Br1972     Br  0.22524090  0.55424805  0.47254214    -0.00800
Br1973     Br  0.11361721  0.49168133  0.46154991    -0.00800
Br1974     Br  0.14074866  0.46656290  0.47403060    -0.00800
C1975       C  0.44997354  0.64201263  0.45587223    -0.01900
C1976       C  0.46367054  0.63280181  0.45261961     0.07800
C1977       C  0.48592842  0.64268894  0.45801936    -0.02000
C1978       C  0.49472731  0.66223480  0.46634021    -0.02000
C1979       C  0.48075122  0.67119938  0.46992639     0.07900
C1980       C  0.45796255  0.66028237  0.46510353    -0.02200
Br1981     Br  0.43677609  0.66899194  0.47175644    -0.00700
Br1982     Br  0.42069606  0.63032269  0.44700905    -0.00800
Br1983     Br  0.52630782  0.67717999  0.47188401    -0.00800
Br1984     Br  0.50454163  0.62972083  0.45364826    -0.00800
C1985       C  0.47283220  0.85448291  0.46505958    -0.01900
C1986       C  0.46957521  0.84998490  0.45075860     0.07800
C1987       C  0.47651777  0.83590779  0.44452178    -0.02000
C1988       C  0.48661194  0.82630928  0.45256150    -0.02000
C1989       C  0.48863497  0.82964645  0.46705194     0.07900
C1990       C  0.48213080  0.84416430  0.47323660    -0.02200
Br1991     Br  0.48501920  0.84938618  0.49293289    -0.00700
Br1992     Br  0.46463689  0.87496153  0.47338400    -0.00800
Br1993     Br  0.49891286  0.80976032  0.44341809    -0.00800
Br1994     Br  0.47168336  0.82927698  0.42496661    -0.00800
C1995       C  0.37167689  0.85575133  0.46565238    -0.01900
C1996       C  0.36898452  0.85221698  0.45123792     0.07800
C1997       C  0.34702125  0.83824017  0.44567963    -0.02000
C1998       C  0.32804254  0.82727125  0.45453319    -0.02000
C1999       C  0.33103891  0.82899736  0.46908815     0.07900
C2000       C  0.35296503  0.84368419  0.47458578    -0.02200
Br2001     Br  0.35823029  0.84596793  0.49429241    -0.00700
Br2002     Br  0.40126904  0.87709537  0.47314526    -0.00800
Br2003     Br  0.29791463  0.81047382  0.44647487    -0.00800
Br2004     Br  0.34295595  0.83310728  0.42595774    -0.00800
C2005       C  0.22561547  0.86566013  0.29429890    -0.01900
C2006       C  0.22288323  0.87306122  0.28122138     0.07800
C2007       C  0.23432894  0.89646346  0.27817359    -0.02000
C2008       C  0.24888982  0.91233796  0.28802009    -0.02000
C2009       C  0.25190486  0.90490653  0.30100494     0.07900
C2010       C  0.23966526  0.88161202  0.30429438    -0.02200
Br2011     Br  0.24066022  0.87169818  0.32285256    -0.00700
Br2012     Br  0.20957581  0.83376126  0.29871339    -0.00800
Br2013     Br  0.26516523  0.94422997  0.28349878    -0.00800
Br2014     Br  0.23100723  0.90691958  0.26024395    -0.00800
C2015       C  0.32551954  0.06836227  0.36789500    -0.01900
C2016       C  0.31030567  0.04748743  0.37421629     0.07800
C2017       C  0.29716117  0.04684219  0.38561623    -0.02000
C2018       C  0.29995028  0.06711089  0.39109585    -0.02000
C2019       C  0.31608666  0.08810909  0.38527647     0.07900
C2020       C  0.32854247  0.08868752  0.37347617    -0.02200
Br2021     Br  0.35076049  0.11731597  0.36542865    -0.00700
Br2022     Br  0.34286683  0.06917124  0.35190540    -0.00800
Br2023     Br  0.28119190  0.06608464  0.40634461    -0.00800
Br2024     Br  0.27503060  0.01808855  0.39353850    -0.00800
C2025       C  0.39979527  0.94838243  0.38318545    -0.01900
C2026       C  0.37854530  0.93297930  0.37716012     0.07800
C2027       C  0.37017814  0.90942865  0.37798388    -0.02000
C2028       C  0.38252951  0.90142338  0.38527972    -0.02000
C2029       C  0.40322321  0.91683386  0.39176914     0.07900
C2030       C  0.41199827  0.94029538  0.39057434    -0.02200
Br2031     Br  0.44016167  0.96123323  0.39974011    -0.00700
Br2032     Br  0.41262570  0.98062294  0.38105016    -0.00800
Br2033     Br  0.37069977  0.86922938  0.38697699    -0.00800
Br2034     Br  0.34109880  0.88779826  0.37001959    -0.00800
C2035       C  0.23544422  0.35630032  0.29525588    -0.01900
C2036       C  0.25894935  0.36834526  0.29221025     0.07800
C2037       C  0.26652586  0.37981217  0.27945842    -0.02000
C2038       C  0.25070116  0.37907202  0.26976838    -0.02000
C2039       C  0.22714769  0.36694190  0.27279784     0.07900
C2040       C  0.21965496  0.35578023  0.28563767    -0.02200
Br2041     Br  0.18785423  0.34088536  0.29047654    -0.00700
Br2042     Br  0.22477200  0.34117257  0.31285142    -0.00800
Br2043     Br  0.26142247  0.39382632  0.25206416    -0.00800
Br2044     Br  0.29855438  0.39555885  0.27489567    -0.00800
C2045       C  0.30624807  0.27483808  0.37743201    -0.01900
C2046       C  0.31979551  0.28479454  0.36560512     0.07800
C2047       C  0.33527822  0.27816996  0.36130822    -0.02000
C2048       C  0.33737503  0.26177063  0.36887841    -0.02000
C2049       C  0.32412427  0.25208690  0.38087055     0.07900
C2050       C  0.30845172  0.25855988  0.38508439    -0.02200
Br2051     Br  0.28997974  0.24509931  0.40132688    -0.00700
Br2052     Br  0.28500732  0.28392286  0.38326584    -0.00800
Br2053     Br  0.35950948  0.25370191  0.36330291    -0.00800
Br2054     Br  0.35443312  0.29247500  0.34542496    -0.00800
C2055       C  0.40639808  0.46890156  0.37952046    -0.01900
C2056       C  0.38609906  0.46407650  0.37259775     0.07800
C2057       C  0.37643094  0.47771591  0.37521503    -0.02000
C2058       C  0.38782168  0.49679564  0.38383293    -0.02000
C2059       C  0.40730716  0.50076466  0.39125845     0.07900
C2060       C  0.41602249  0.48622679  0.38949283    -0.02200
Br2061     Br  0.44045616  0.48943953  0.40119572    -0.00700
Br2062     Br  0.42197978  0.45280779  0.37500068    -0.00800
Br2063     Br  0.37631529  0.51722976  0.38584920    -0.00800
Br2064     Br  0.34637672  0.46917755  0.36855306    -0.00800
C2065       C  0.64217120  0.90260417  0.28600164    -0.01900
C2066       C  0.65125954  0.90354575  0.29926592     0.07800
C2067       C  0.66190771  0.89092484  0.30202011    -0.02000
C2068       C  0.66367109  0.87763392  0.29155337    -0.02000
C2069       C  0.65423471  0.87627482  0.27834992     0.07900
C2070       C  0.64342274  0.88881616  0.27561021    -0.02200
Br2071     Br  0.63116345  0.88795288  0.25746922    -0.00700
Br2072     Br  0.62894521  0.92104619  0.28188807    -0.00800
Br2073     Br  0.67820432  0.86048494  0.29561348    -0.00800
Br2074     Br  0.67292743  0.89068082  0.32040204    -0.00800
C2075       C  0.73034996  0.06807051  0.36059529    -0.01900
C2076       C  0.72465387  0.05067395  0.37037376     0.07800
C2077       C  0.73394224  0.05627103  0.38381701    -0.02000
C2078       C  0.74834657  0.07910073  0.38758279    -0.02000
C2079       C  0.75366881  0.09647157  0.37789911     0.07900
C2080       C  0.74487389  0.09092068  0.36435693    -0.02200
Br2081     Br  0.75156694  0.11475208  0.35123992    -0.00700
Br2082     Br  0.71703384  0.06084432  0.34233855    -0.00800
Br2083     Br  0.76092336  0.08659519  0.40602850    -0.00800
Br2084     Br  0.72714375  0.03258925  0.39706257    -0.00800
C2085       C  0.52944283  0.90277263  0.37931944    -0.01900
C2086       C  0.54453180  0.92583468  0.37612352     0.07800
C2087       C  0.53869875  0.94214583  0.37996549    -0.02000
C2088       C  0.51899775  0.93576623  0.38789253    -0.02000
C2089       C  0.50429222  0.91284278  0.39139534     0.07900
C2090       C  0.50914816  0.89629085  0.38661593    -0.02200
Br2091     Br  0.48789700  0.86460383  0.39014821    -0.00700
Br2092     Br  0.53703800  0.87999984  0.37468049    -0.00800
Br2093     Br  0.51269512  0.95860039  0.39447384    -0.00800
Br2094     Br  0.55709486  0.97316611  0.37386667    -0.00800
C2095       C  0.12611367  0.34297433  0.28176968    -0.01900
C2096       C  0.13702976  0.36143891  0.27229943     0.07800
C2097       C  0.13222135  0.37929108  0.27345908    -0.02000
C2098       C  0.11678780  0.37840255  0.28353093    -0.02000
C2099       C  0.10782730  0.36118460  0.29364877     0.07900
C2100       C  0.11267962  0.34352791  0.29273130    -0.02200
Br2101     Br  0.10232300  0.32066959  0.30704613    -0.00700
Br2102     Br  0.12913490  0.31644756  0.28037583    -0.00800
Br2103     Br  0.10650550  0.40001705  0.28273283    -0.00800
Br2104     Br  0.14611752  0.40538518  0.26142062    -0.00800
C2105       C  0.96051852  0.27787543  0.38280973    -0.01900
C2106       C  0.96330023  0.28695492  0.36933544     0.07800
C2107       C  0.94395748  0.28011627  0.36089274    -0.02000
C2108       C  0.92216503  0.26395164  0.36574032    -0.02000
C2109       C  0.91930886  0.25587799  0.37943256     0.07900
C2110       C  0.93853830  0.26271788  0.38791758    -0.02200
Br2111     Br  0.93476012  0.25074177  0.40642799    -0.00700
Br2112     Br  0.98674800  0.28569638  0.39425968    -0.00800
Br2113     Br  0.89612653  0.25346117  0.35367470    -0.00800
Br2114     Br  0.94667825  0.29464424  0.34329508    -0.00800
C2115       C  0.11455795  0.48045243  0.37577190    -0.01900
C2116       C  0.09173611  0.46228453  0.37688746     0.07800
C2117       C  0.07633233  0.46490965  0.38542421    -0.02000
C2118       C  0.08425219  0.48422744  0.39380873    -0.02000
C2119       C  0.10681058  0.50228571  0.39248844     0.07900
C2120       C  0.12159852  0.50079737  0.38298893    -0.02200
Br2121     Br  0.15184049  0.52653071  0.38035138    -0.00700
Br2122     Br  0.13723122  0.47733252  0.36566257    -0.00800
Br2123     Br  0.06445320  0.48569527  0.40753197    -0.00800
Br2124     Br  0.04401184  0.44316333  0.38512363    -0.00800
C2125       C  0.26288855  0.95760650  0.89017070    -0.01900
C2126       C  0.27054168  0.95745418  0.87666309     0.07800
C2127       C  0.26197707  0.93676305  0.86952526    -0.02000
C2128       C  0.24584837  0.91627274  0.87588004    -0.02000
C2129       C  0.23810957  0.91641082  0.88941810     0.07900
C2130       C  0.24653456  0.93720893  0.89647848    -0.04000
Br2131     Br  0.23498625  0.93804620  0.91457474    -0.00700
Br2132     Br  0.27493131  0.98587098  0.90005958    -0.00800
Br2133     Br  0.23550498  0.88797656  0.86627156    -0.00800
Br2134     Br  0.27327453  0.93643095  0.85128005    -0.00800
C2135       C  0.06399018  0.72708658  0.86483324    -0.01900
C2136       C  0.04174595  0.71850851  0.86991711     0.07800
C2137       C  0.03830827  0.72632526  0.88264657    -0.02000
C2138       C  0.05708826  0.74290846  0.89020306    -0.02000
C2139       C  0.07940363  0.75148627  0.88514676     0.07900
C2140       C  0.08281219  0.74346154  0.87245558    -0.02200
Br2141     Br  0.11327228  0.75395220  0.86582331    -0.00700
Br2142     Br  0.06855846  0.71624976  0.84740234    -0.00800
Br2143     Br  0.05216126  0.75432874  0.90729880    -0.00800
Br2144     Br  0.00787916  0.71381634  0.88990376    -0.00800
C2145       C  0.51510071  0.34820141  0.97606799    -0.01900
C2146       C  0.51159693  0.32799644  0.96987867     0.07800
C2147       C  0.51658968  0.32798711  0.95568844    -0.02000
C2148       C  0.52670719  0.34829914  0.94809218    -0.02000
C2149       C  0.52959943  0.36829793  0.95414063     0.07900
C2150       C  0.52357106  0.36813573  0.96813149    -0.02200
Br2151     Br  0.52722097  0.39537942  0.97650447    -0.00700
Br2152     Br  0.50934254  0.34911051  0.99554541    -0.00800
Br2153     Br  0.53774416  0.34898616  0.92960340    -0.00800
Br2154     Br  0.50779055  0.29992948  0.94616982    -0.00800
C2155       C  0.66556643  0.48572712  0.96306861    -0.01900
C2156       C  0.66457189  0.49185585  0.97691338     0.07800
C2157       C  0.64448829  0.49073289  0.98179165    -0.02000
C2158       C  0.62540785  0.48292710  0.97300788    -0.02000
C2159       C  0.62608367  0.47554179  0.95951167     0.07900
C2160       C  0.64617911  0.47696987  0.95457424    -0.02200
Br2161     Br  0.64672235  0.46590542  0.93628490    -0.00700
Br2162     Br  0.69371135  0.49033763  0.95527591    -0.00800
Br2163     Br  0.59810870  0.48184565  0.97944654    -0.00800
Br2164     Br  0.64251606  0.49855526  0.00070550    -0.00800
C2165       C  0.90178211  0.52347431  0.86863648    -0.01900
C2166       C  0.91631160  0.54454466  0.87507791     0.07800
C2167       C  0.92286056  0.54511165  0.88902416    -0.02000
C2168       C  0.91484287  0.52481498  0.89643227    -0.02000
C2169       C  0.89941697  0.50396176  0.89020005     0.07900
C2170       C  0.89328220  0.50324278  0.87621601    -0.02200
Br2171     Br  0.87276063  0.47451967  0.86755564    -0.00700
Br2172     Br  0.89362527  0.52202011  0.84936661    -0.00800
Br2173     Br  0.92446739  0.52542507  0.91531823    -0.00800
Br2174     Br  0.94097241  0.57355216  0.89859276    -0.00800
C2175       C  0.80724891  0.46980220  0.94446849    -0.01900
C2176       C  0.82852503  0.47208148  0.94741971     0.07800
C2177       C  0.84138566  0.48538552  0.95873819    -0.02000
C2178       C  0.83237878  0.49514725  0.96765447    -0.02000
C2179       C  0.81062678  0.49228860  0.96500602     0.07900
C2180       C  0.79854077  0.48027366  0.95301104    -0.02200
Br2181     Br  0.77074160  0.47920421  0.94754541    -0.00700
Br2182     Br  0.79012347  0.45229083  0.92860297    -0.00800
Br2183     Br  0.84963659  0.51115493  0.98386800    -0.00800
Br2184     Br  0.87136908  0.48994352  0.96204003    -0.00800
C2185       C  0.68510075  0.74163927  0.88042087    -0.01900
C2186       C  0.67603845  0.72768819  0.86867431     0.07800
C2187       C  0.65982913  0.72919617  0.86040363    -0.02000
C2188       C  0.65214241  0.74405070  0.86413521    -0.02000
C2189       C  0.66016754  0.75698681  0.87637905     0.07900
C2190       C  0.67702043  0.75608990  0.88435607    -0.02200
Br2191     Br  0.68919038  0.77481728  0.90061885    -0.00700
Br2192     Br  0.70863115  0.74088403  0.89107863    -0.00800
Br2193     Br  0.62958844  0.74558447  0.85286713    -0.00800
Br2194     Br  0.64697285  0.70973868  0.84447911    -0.00800
C2195       C  0.61940061  0.51456000  0.89387186    -0.01900
C2196       C  0.59776533  0.50853258  0.89919314     0.07800
C2197       C  0.58874953  0.52268217  0.89666755    -0.02000
C2198       C  0.60129866  0.54279073  0.88893997    -0.02000
C2199       C  0.62337867  0.54934914  0.88404380     0.07900
C2200       C  0.63230299  0.53500029  0.88652482    -0.02200
Br2201     Br  0.66281694  0.54373088  0.88074442    -0.00700
Br2202     Br  0.63148931  0.49477804  0.89681898    -0.00800
Br2203     Br  0.58748240  0.56059660  0.88456665    -0.00800
Br2204     Br  0.55934941  0.51471714  0.90414754    -0.00800
C2205       C  0.64731606  0.92266154  0.86846640    -0.01900
C2206       C  0.63522823  0.90160336  0.86162238     0.07800
C2207       C  0.62860470  0.90076466  0.84768700    -0.02000
C2208       C  0.63308671  0.92078588  0.84089043    -0.02000
C2209       C  0.64361796  0.94147106  0.84810645     0.07900
C2210       C  0.65128310  0.94253241  0.86176261    -0.02200
Br2211     Br  0.66750793  0.97132779  0.87120825    -0.00700
Br2212     Br  0.65942442  0.92452643  0.88679235    -0.00800
Br2213     Br  0.62468336  0.92002509  0.82174887    -0.00800
Br2214     Br  0.61240143  0.87217444  0.83807308    -0.00800
C2215       C  0.79181432  0.32959230  0.95354771    -0.01900
C2216       C  0.80318446  0.32880221  0.96565118     0.07800
C2217       C  0.82481413  0.34762123  0.96894911    -0.02000
C2218       C  0.83527627  0.36640149  0.95998680    -0.02000
C2219       C  0.82354510  0.36739501  0.94827339     0.07900
C2220       C  0.80163123  0.34919099  0.94523921    -0.02200
Br2221     Br  0.78517058  0.35124594  0.92958022    -0.00700
Br2222     Br  0.76364272  0.30353106  0.94743993    -0.00800
Br2223     Br  0.86581023  0.39095180  0.96367788    -0.00800
Br2224     Br  0.83969174  0.34880457  0.98619383    -0.00800
C2225       C  0.46525813  0.10054784  0.87150444    -0.01900
C2226       C  0.45245291  0.07745890  0.86771329     0.07800
C2227       C  0.45985909  0.06253570  0.87181986    -0.02000
C2228       C  0.47794804  0.06974287  0.88122301    -0.02000
C2229       C  0.49005804  0.09252545  0.88560110     0.07900
C2230       C  0.48434325  0.10813051  0.88020355    -0.02200
Br2231     Br  0.50251687  0.13986962  0.88492157    -0.00700
Br2232     Br  0.45624641  0.12172728  0.86553520    -0.00800
Br2233     Br  0.48523266  0.04804857  0.88866221    -0.00800
Br2234     Br  0.44578349  0.03244912  0.86402684    -0.00800
C2235       C  0.50198610  0.17523929  0.95183748    -0.01900
C2236       C  0.50036749  0.17088025  0.96619631     0.07800
C2237       C  0.50471030  0.15420694  0.97138959    -0.02000
C2238       C  0.51202662  0.14303357  0.96239127    -0.02000
C2239       C  0.51556051  0.14884979  0.94824653     0.07900
C2240       C  0.50993271  0.16455138  0.94291826    -0.02200
Br2241     Br  0.51413607  0.17232796  0.92350951    -0.00700
Br2242     Br  0.49272980  0.19540800  0.94425062    -0.00800
Br2243     Br  0.51777232  0.12006487  0.96944934    -0.00800
Br2244     Br  0.50221696  0.14767688  0.99094236    -0.00800
C2245       C  0.60649691  0.10686319  0.87600331    -0.01900
C2246       C  0.59295994  0.09420604  0.88728191     0.07800
C2247       C  0.59000497  0.07275480  0.89019897    -0.02000
C2248       C  0.60156022  0.06446713  0.88233066    -0.02000
C2249       C  0.61471662  0.07684571  0.87073071     0.07900
C2250       C  0.61641512  0.09775611  0.86735544    -0.02200
Br2251     Br  0.63069882  0.11340354  0.85037300    -0.00700
Br2252     Br  0.61159209  0.13684554  0.87251557    -0.00800
Br2253     Br  0.60043905  0.03704338  0.88836735    -0.00800
Br2254     Br  0.57023480  0.05489516  0.90517860    -0.00800
C2255       C  0.64175879  0.17629388  0.94435410    -0.01900
C2256       C  0.62148389  0.15679376  0.94851480     0.07800
C2257       C  0.62033586  0.14702414  0.96153129    -0.02000
C2258       C  0.63928855  0.15697409  0.97050832    -0.02000
C2259       C  0.65942812  0.17703644  0.96657211     0.07900
C2260       C  0.66073970  0.18625458  0.95325492    -0.02200
Br2261     Br  0.68893329  0.21168648  0.94662926    -0.00700
Br2262     Br  0.64329206  0.18955060  0.92646956    -0.00800
Br2263     Br  0.63718921  0.14325316  0.98828216    -0.00800
Br2264     Br  0.59252467  0.12005691  0.96702277    -0.00800
C2265       C  0.05491199  0.34508166  0.86953983    -0.01900
C2266       C  0.05625512  0.35565429  0.85678537     0.07800
C2267       C  0.07769388  0.37032621  0.85085925    -0.02000
C2268       C  0.09776143  0.37439644  0.85763160    -0.02000
C2269       C  0.09648129  0.36355513  0.87030628     0.07900
C2270       C  0.07494444  0.34894610  0.87626674    -0.02200
Br2271     Br  0.07276273  0.33402794  0.89360444    -0.00700
Br2272     Br  0.02552983  0.32564630  0.87790700    -0.00800
Br2273     Br  0.12703538  0.39620807  0.85004899    -0.00800
Br2274     Br  0.07947299  0.38543269  0.83366449    -0.00800
C2275       C  0.90002863  0.38779392  0.86796742    -0.01900
C2276       C  0.91502428  0.38141351  0.87368713     0.07800
C2277       C  0.92011709  0.38467277  0.88797258    -0.02000
C2278       C  0.91125120  0.39526168  0.89626276    -0.02000
C2279       C  0.89552759  0.40069254  0.89067567     0.07900
C2280       C  0.88976695  0.39670844  0.87652620    -0.02200
Br2281     Br  0.86778604  0.40354595  0.86885787    -0.00700
Br2282     Br  0.89446148  0.38569915  0.84827879    -0.00800
Br2283     Br  0.92141611  0.40329473  0.91514000    -0.00800
Br2284     Br  0.93777911  0.37316331  0.89655925    -0.00800
C2285       C  0.27581772  0.35187940  0.85441683    -0.01900
C2286       C  0.28600512  0.34311922  0.86316077     0.07800
C2287       C  0.28049387  0.34007656  0.87734053    -0.02000
C2288       C  0.26504271  0.34600011  0.88280946    -0.02000
C2289       C  0.25518528  0.35536530  0.87413180     0.07900
C2290       C  0.26065076  0.35819445  0.85986630    -0.02200
Br2291     Br  0.24907896  0.37251604  0.84782348    -0.00700
Br2292     Br  0.28363289  0.35629933  0.83502589    -0.00800
Br2293     Br  0.25700633  0.34045956  0.90215401    -0.00800
Br2294     Br  0.29403204  0.32749348  0.88925158    -0.00800
C2295       C  0.47790552  0.38095251  0.87345676    -0.01900
C2296       C  0.45686121  0.37863136  0.87755659     0.07800
C2297       C  0.45584945  0.38849986  0.89024352    -0.02000
C2298       C  0.47556787  0.40084086  0.89841250    -0.02000
C2299       C  0.49618864  0.40222479  0.89459757     0.07900
C2300       C  0.49720444  0.39201812  0.88215581    -0.02200
Br2301     Br  0.52501331  0.39277758  0.87719029    -0.00700
Br2302     Br  0.48102802  0.37014799  0.85562047    -0.00800
Br2303     Br  0.47424811  0.41541433  0.91521731    -0.00800
Br2304     Br  0.42726864  0.38371353  0.89741807    -0.00800
C2305       C  0.35051002  0.12512234  0.80378027    -0.01900
C2306       C  0.33877452  0.10158394  0.80121404     0.07800
C2307       C  0.32665413  0.09307496  0.78873726    -0.02000
C2308       C  0.32651935  0.10803527  0.77878713    -0.02000
C2309       C  0.33935490  0.13168958  0.78101809     0.07900
C2310       C  0.35101319  0.14015000  0.79366619    -0.02200
Br2311     Br  0.36727827  0.17232948  0.79736913    -0.00700
Br2312     Br  0.36571120  0.13684108  0.82127938    -0.00800
Br2313     Br  0.30978117  0.09597658  0.76175788    -0.00800
Br2314     Br  0.31191466  0.06109508  0.78471220    -0.00800
C2315       C  0.35992688  0.25701519  0.78869111    -0.01900
C2316       C  0.34784301  0.24782260  0.80109775     0.07800
C2317       C  0.33432832  0.22413745  0.80259929    -0.02000
C2318       C  0.33298958  0.20965859  0.79179296    -0.02000
C2319       C  0.34532869  0.21880122  0.77940040     0.07900
C2320       C  0.35888180  0.24258461  0.77793931    -0.02200
Br2321     Br  0.37587373  0.25553311  0.76112435    -0.00700
Br2322     Br  0.37761630  0.28947465  0.78636326    -0.00800
Br2323     Br  0.31551940  0.17727109  0.79447643    -0.00800
Br2324     Br  0.31849587  0.21157903  0.81979711    -0.00800
C2325       C  0.75703508  0.13194951  0.77822699    -0.01900
C2326       C  0.77931705  0.13506754  0.77706160     0.07800
C2327       C  0.78568508  0.12305618  0.78631422    -0.02000
C2328       C  0.77042305  0.10893837  0.79660870    -0.02000
C2329       C  0.74850810  0.10596665  0.79752751     0.07900
C2330       C  0.74159625  0.11683750  0.78806888    -0.02200
Br2331     Br  0.71021182  0.10967908  0.78798136    -0.00700
Br2332     Br  0.74645259  0.14782464  0.76665063    -0.00800
Br2333     Br  0.77974338  0.09408371  0.80988367    -0.00800
Br2334     Br  0.81544339  0.12604311  0.78577937    -0.00800
C2335       C  0.87227258  0.21664109  0.78918062    -0.01900
C2336       C  0.86579876  0.22380795  0.77719267     0.07800
C2337       C  0.87430498  0.24720551  0.77508769    -0.02000
C2338       C  0.88883095  0.26312064  0.78494615    -0.02000
C2339       C  0.89554861  0.25591661  0.79674096     0.07900
C2340       C  0.88741415  0.23270545  0.79879343    -0.02200
Br2341     Br  0.89636985  0.22288987  0.81510020    -0.00700
Br2342     Br  0.85924805  0.18482991  0.79310528    -0.00800
Br2343     Br  0.90006045  0.29499695  0.78210140    -0.00800
Br2344     Br  0.86720111  0.25794312  0.75839291    -0.00800
C2345       C  0.77325780  0.63730024  0.79246419    -0.01900
C2346       C  0.77556500  0.64919727  0.78008114     0.07800
C2347       C  0.76217262  0.65923415  0.77800375    -0.02000
C2348       C  0.74624707  0.65701165  0.78811249    -0.02000
C2349       C  0.74429739  0.64560841  0.80068414     0.07900
C2350       C  0.75788923  0.63569618  0.80278301    -0.02200
Br2351     Br  0.75647519  0.62071086  0.82000078    -0.00700
Br2352     Br  0.79197648  0.62399160  0.79559161    -0.00800
Br2353     Br  0.72585354  0.66807522  0.78415503    -0.00800
Br2354     Br  0.76499500  0.67534199  0.76104218    -0.00800
C2355       C  0.86954824  0.63520075  0.77885932    -0.01900
C2356       C  0.86031365  0.64950356  0.77990966     0.07800
C2357       C  0.86539932  0.66366835  0.79161709    -0.02000
C2358       C  0.87973920  0.66365123  0.80209843    -0.02000
C2359       C  0.88899085  0.64943564  0.80100313     0.07900
C2360       C  0.88393836  0.63529272  0.78933695    -0.02200
Br2361     Br  0.89741605  0.61654929  0.78741532    -0.00700
Br2362     Br  0.86313364  0.61577254  0.76294143    -0.00800
Br2363     Br  0.88561546  0.68216845  0.81837249    -0.00800
Br2364     Br  0.85137048  0.68187891  0.79397170    -0.00800
C2365       C  0.77176631  0.66394884  0.69655333    -0.01900
C2366       C  0.74792857  0.65258267  0.69853277     0.07800
C2367       C  0.73853506  0.64100473  0.71109865    -0.02000
C2368       C  0.75277316  0.64036106  0.72142341    -0.02000
C2369       C  0.77657354  0.65200154  0.71948621     0.07900
C2370       C  0.78606066  0.66410704  0.70712449    -0.02200
Br2371     Br  0.81867212  0.68017160  0.70434771    -0.00700
Br2372     Br  0.78497628  0.67791889  0.67900664    -0.00800
Br2373     Br  0.73962558  0.62417773  0.73846687    -0.00800
Br2374     Br  0.70625426  0.62691856  0.71460708    -0.00800
C2375       C  0.70101976  0.75523861  0.62173818    -0.01900
C2376       C  0.68316750  0.73353013  0.62560920     0.07800
C2377       C  0.66050528  0.72891536  0.62521456    -0.02000
C2378       C  0.65555974  0.74506092  0.61981442    -0.02000
C2379       C  0.67329829  0.76627147  0.61509510     0.07900
C2380       C  0.69612798  0.77164352  0.61665538    -0.02200
Br2381     Br  0.72081186  0.80114859  0.61134983    -0.00700
Br2382     Br  0.73220013  0.76223061  0.62279798    -0.00800
Br2383     Br  0.62443665  0.73843391  0.61952298    -0.00800
Br2384     Br  0.63630549  0.70097054  0.63289534    -0.00800
C2385       C  0.78055425  0.12664719  0.69141252    -0.01900
C2386       C  0.75664482  0.11425307  0.69277366     0.07800
C2387       C  0.74657014  0.11269795  0.70575152    -0.02000
C2388       C  0.76033745  0.12391513  0.71726247    -0.02000
C2389       C  0.78417319  0.13715545  0.71581055     0.07900
C2390       C  0.79433516  0.13800656  0.70293073    -0.02200
Br2391     Br  0.82704128  0.15523723  0.70085502    -0.00700
Br2392     Br  0.79436967  0.12915378  0.67356938    -0.00800
Br2393     Br  0.74663813  0.11998914  0.73523581    -0.00800
Br2394     Br  0.71390245  0.09478759  0.70786931    -0.00800
C2395       C  0.69676994  0.97150566  0.60583059    -0.01900
C2396       C  0.68631546  0.97356624  0.61785631     0.07800
C2397       C  0.67077816  0.95398596  0.62524749    -0.02000
C2398       C  0.66548640  0.93239072  0.62051073    -0.02000
C2399       C  0.67595651  0.93031087  0.60847315     0.07900
C2400       C  0.69159763  0.94993476  0.60113726    -0.02200
Br2401     Br  0.70599296  0.94726968  0.58465313    -0.00700
Br2402     Br  0.71832818  0.99835624  0.59587052    -0.00800
Br2403     Br  0.64281194  0.90556746  0.63000951    -0.00800
Br2404     Br  0.65612443  0.95674105  0.64158848    -0.00800
C2405       C  0.84190275  0.35425721  0.52365876    -0.01900
C2406       C  0.81902655  0.33743252  0.52645254     0.07800
C2407       C  0.80702231  0.34129265  0.53703569    -0.02000
C2408       C  0.81821566  0.36094703  0.54522077    -0.02000
C2409       C  0.84056763  0.37803007  0.54195846     0.07900
C2410       C  0.85223822  0.37486276  0.53100158    -0.02200
Br2411     Br  0.88293006  0.39846060  0.52664340    -0.00700
Br2412     Br  0.86017658  0.34852677  0.51090453    -0.00800
Br2413     Br  0.80348209  0.36403934  0.56144449    -0.00800
Br2414     Br  0.77491388  0.32063304  0.54005901    -0.00800
C2415       C  0.83997818  0.49166368  0.52128431    -0.01900
C2416       C  0.83669578  0.50850151  0.52733086     0.07800
C2417       C  0.84824969  0.51874421  0.53971493    -0.02000
C2418       C  0.85981117  0.50970892  0.54688046    -0.02000
C2419       C  0.85634628  0.48821495  0.54302746     0.07900
C2420       C  0.85136721  0.48275924  0.52880045    -0.02200
Br2421     Br  0.86517663  0.46853846  0.51862302    -0.00700
Br2422     Br  0.82814840  0.47983488  0.50314050    -0.00800
Br2423     Br  0.88557202  0.53006317  0.55820281    -0.00800
Br2424     Br  0.84934971  0.54575226  0.54648874    -0.00800
C2425       C  0.61439975  0.51422244  0.61531749    -0.01900
C2426       C  0.59931867  0.51201266  0.60464756     0.07800
C2427       C  0.59609477  0.53027530  0.60161968    -0.02000
C2428       C  0.60742732  0.55040603  0.60942585    -0.02000
C2429       C  0.62425474  0.55355538  0.61923811     0.07900
C2430       C  0.62771844  0.53520017  0.62207063    -0.02200
Br2431     Br  0.65213087  0.53880231  0.63396729    -0.00700
Br2432     Br  0.61743196  0.48855156  0.62020163    -0.00800
Br2433     Br  0.59846166  0.57277476  0.60709693    -0.00800
Br2434     Br  0.57695041  0.52808314  0.58626758    -0.00800
C2435       C  0.63942367  0.49788737  0.53750672    -0.01900
C2436       C  0.63305054  0.47855764  0.54567365     0.07800
C2437       C  0.64645158  0.46835112  0.54571866    -0.02000
C2438       C  0.66638040  0.47755056  0.53773058    -0.02000
C2439       C  0.67362528  0.49771809  0.53007279     0.07900
C2440       C  0.65970251  0.50754346  0.52973882    -0.02200
Br2441     Br  0.66833964  0.53458390  0.51911455    -0.00700
Br2442     Br  0.62030863  0.51115150  0.53715213    -0.00800
Br2443     Br  0.68243588  0.46109737  0.53662488    -0.00800
Br2444     Br  0.63755428  0.44181538  0.55698239    -0.00800
C2445       C  0.51996794  0.33833249  0.53892036    -0.01900
C2446       C  0.50992478  0.33876264  0.52619527     0.07800
C2447       C  0.50883603  0.35819318  0.52263034    -0.02000
C2448       C  0.51768914  0.37687609  0.53171691    -0.02000
C2449       C  0.52925918  0.37698047  0.54385812     0.07900
C2450       C  0.53083957  0.35784364  0.54721744    -0.02200
Br2451     Br  0.54848011  0.35857374  0.56305969    -0.00700
Br2452     Br  0.51718529  0.31058738  0.54587058    -0.00800
Br2453     Br  0.51441753  0.40258612  0.52742428    -0.00800
Br2454     Br  0.49649140  0.36000069  0.50501645    -0.00800
C2455       C  0.59027341  0.08135202  0.60441844    -0.01900
C2456       C  0.59756292  0.10406846  0.60113451     0.07800
C2457       C  0.61848197  0.12154738  0.60640563    -0.02000
C2458       C  0.63334346  0.11628693  0.61337908    -0.02000
C2459       C  0.62650479  0.09343841  0.61616460     0.07900
C2460       C  0.60432250  0.07615189  0.61238687    -0.02200
Br2461     Br  0.59268296  0.04539126  0.61856146    -0.00700
Br2462     Br  0.56156736  0.05726840  0.59743635    -0.00800
Br2463     Br  0.66372803  0.14049593  0.61776595    -0.00800
Br2464     Br  0.62693451  0.15279580  0.60367362    -0.00800
C2465       C  0.65325885  0.16189175  0.52202646    -0.01900
C2466       C  0.67076565  0.18411992  0.52553050     0.07800
C2467       C  0.66686296  0.19572451  0.53634779    -0.02000
C2468       C  0.64647645  0.18475879  0.54399321    -0.02000
C2469       C  0.62874658  0.16313136  0.54004061     0.07900
C2470       C  0.63208055  0.15185023  0.52891920    -0.02200
Br2471     Br  0.60769436  0.12227917  0.52343875    -0.00700
Br2472     Br  0.65845373  0.14419809  0.50855322    -0.00800
Br2473     Br  0.64300041  0.19906777  0.56027509    -0.00800
Br2474     Br  0.68816407  0.22729982  0.54024922    -0.00800
C2475       C  0.52663806  0.18593915  0.54687368    -0.01900
C2476       C  0.52812570  0.16795962  0.54090633     0.07800
C2477       C  0.52069502  0.16132810  0.52717599    -0.02000
C2478       C  0.51136408  0.17224032  0.51956480    -0.02000
C2479       C  0.50967444  0.19011697  0.52556373     0.07900
C2480       C  0.51743538  0.19696029  0.53926620    -0.02200
Br2481     Br  0.51463111  0.22077518  0.54799680    -0.00700
Br2482     Br  0.53758712  0.19567748  0.56548158    -0.00800
Br2483     Br  0.50182294  0.16321960  0.50068162    -0.00800
Br2484     Br  0.52351563  0.13735367  0.51875329    -0.00800
C2485       C  0.35937157  0.10428807  0.71467368    -0.01900
C2486       C  0.35185535  0.10350627  0.70098641     0.07800
C2487       C  0.34191665  0.11648210  0.69734877    -0.02000
C2488       C  0.33980856  0.13043482  0.70727003    -0.02000
C2489       C  0.34781261  0.13163773  0.72091097     0.07900
C2490       C  0.35760169  0.11847362  0.72455646    -0.02200
Br2491     Br  0.36815412  0.11943157  0.74322568    -0.00700
Br2492     Br  0.37217299  0.08590115  0.71986282    -0.00800
Br2493     Br  0.32688089  0.14865273  0.70193171    -0.00800
Br2494     Br  0.33091415  0.11482551  0.67874578    -0.00800
C2495       C  0.29836959  0.92176841  0.64752994    -0.01900
C2496       C  0.29746006  0.94153557  0.64478807     0.07800
C2497       C  0.28031028  0.94019250  0.63592070    -0.02000
C2498       C  0.26426387  0.91929200  0.62992641    -0.02000
C2499       C  0.26548698  0.89971657  0.63250280     0.07900
C2500       C  0.28275013  0.90105928  0.64116070    -0.02200
Br2501     Br  0.28529986  0.87457427  0.64398099    -0.00700
Br2502     Br  0.32013899  0.92268375  0.66066706    -0.00800
Br2503     Br  0.24057346  0.91738668  0.61805900    -0.00800
Br2504     Br  0.27920405  0.96704443  0.63140484    -0.00800
C2505       C  0.45573018  0.07086564  0.60835252    -0.01900
C2506       C  0.45654277  0.08408743  0.61991730     0.07800
C2507       C  0.47575961  0.10622550  0.62141570    -0.02000
C2508       C  0.49332867  0.11498960  0.61145462    -0.02000
C2509       C  0.49299949  0.10126443  0.60052915     0.07900
C2510       C  0.47423967  0.07916699  0.59905358    -0.02200
Br2511     Br  0.47411711  0.06028788  0.58418551    -0.00700
Br2512     Br  0.42891223  0.04196334  0.60431789    -0.00800
Br2513     Br  0.51827308  0.14589755  0.61276574    -0.00800
Br2514     Br  0.47963585  0.12430631  0.63762449    -0.00800
C2515       C  0.89958631  0.65387854  0.71599675    -0.01900
C2516       C  0.89268126  0.64511667  0.70250850     0.07800
C2517       C  0.87049438  0.63878988  0.69796506    -0.02000
C2518       C  0.85517629  0.64045197  0.70700323    -0.02000
C2519       C  0.86234508  0.64978067  0.72033262     0.07900
C2520       C  0.88475733  0.65694262  0.72466840    -0.02200
Br2521     Br  0.89482252  0.66990588  0.74285064    -0.00700
Br2522     Br  0.92842430  0.65955551  0.72322719    -0.00800
Br2523     Br  0.82435667  0.62995337  0.70106703    -0.00800
Br2524     Br  0.86113045  0.62856009  0.67919348    -0.00800
C2525       C  0.07779061  0.73462757  0.62659827    -0.01900
C2526       C  0.09832884  0.73820072  0.63250659     0.07800
C2527       C  0.09748383  0.72612706  0.64454751    -0.02000
C2528       C  0.07637196  0.71101860  0.65077024    -0.02000
C2529       C  0.05591873  0.70729921  0.64476840     0.07900
C2530       C  0.05667878  0.71926441  0.63273465    -0.02200
Br2531     Br  0.02865436  0.71412047  0.62448033    -0.00700
Br2532     Br  0.07843032  0.75060672  0.61001281    -0.00800
Br2533     Br  0.07534073  0.69535955  0.66758736    -0.00800
Br2534     Br  0.12502386  0.72861512  0.65180686    -0.00800
C2535       C  0.88940149  0.49699458  0.62342808    -0.01900
C2536       C  0.89639947  0.50024452  0.60949087     0.07800
C2537       C  0.91268325  0.52211858  0.60483398    -0.02000
C2538       C  0.92158014  0.54067885  0.61395787    -0.02000
C2539       C  0.91556838  0.53729665  0.62812832     0.07900
C2540       C  0.89956256  0.51525153  0.63283106    -0.02200
Br2541     Br  0.89271650  0.50945319  0.65228412    -0.00700
Br2542     Br  0.86570830  0.46749416  0.62954215    -0.00800
Br2543     Br  0.94099948  0.57077649  0.60658976    -0.00800
Br2544     Br  0.92361178  0.52662190  0.58599487    -0.00800
C2545       C  0.86929980  0.23743183  0.69391032    -0.01900
C2546       C  0.89309443  0.25065588  0.69557946     0.07800
C2547       C  0.90333667  0.24910967  0.70788050    -0.02000
C2548       C  0.88978852  0.23444052  0.71853902    -0.02000
C2549       C  0.86588901  0.22164830  0.71702313     0.07900
C2550       C  0.85567740  0.22325217  0.70468455    -0.02200
Br2551     Br  0.82301978  0.20546498  0.70219391    -0.00700
Br2552     Br  0.85541037  0.23768230  0.67653806    -0.00800
Br2553     Br  0.90398970  0.23280433  0.73544633    -0.00800
Br2554     Br  0.93587991  0.26781666  0.71035753    -0.00800
C2555       C  0.05008446  0.31466276  0.62862508    -0.01900
C2556       C  0.03068051  0.30393301  0.62001909     0.07800
C2557       C  0.03210822  0.29563267  0.60696568    -0.02000
C2558       C  0.05304344  0.29877336  0.60229878    -0.02000
C2559       C  0.07272764  0.31062292  0.61054509     0.07900
C2560       C  0.07113334  0.31812094  0.62385131    -0.02200
Br2561     Br  0.09805169  0.33454425  0.63515096    -0.00700
Br2562     Br  0.04829223  0.32611973  0.64654386    -0.00800
Br2563     Br  0.05473779  0.28659092  0.58463606    -0.00800
Br2564     Br  0.00532234  0.27990079  0.59547303    -0.00800
C2565       C  0.93385221  0.39464373  0.60882882    -0.01900
C2566       C  0.91829195  0.37519505  0.61645598     0.07800
C2567       C  0.89514778  0.36926321  0.61716084    -0.02000
C2568       C  0.88778114  0.38255578  0.61031231    -0.02000
C2569       C  0.90325873  0.40159263  0.60248933     0.07900
C2570       C  0.92624532  0.40749408  0.60168925    -0.02200
Br2571     Br  0.94710505  0.43273363  0.59028487    -0.00700
Br2572     Br  0.96589910  0.40450950  0.60840696    -0.00800
Br2573     Br  0.85605395  0.37400798  0.61093787    -0.00800
Br2574     Br  0.87278364  0.34195375  0.62646147    -0.00800
C2575       C  0.36463495  0.23141133  0.69402458    -0.01900
C2576       C  0.35342681  0.24396698  0.69448765     0.07800
C2577       C  0.34135232  0.24322219  0.70654368    -0.02000
C2578       C  0.33991117  0.22952236  0.71781893    -0.02000
C2579       C  0.35161340  0.21747710  0.71748156     0.07900
C2580       C  0.36437676  0.21884155  0.70564095    -0.02200
Br2581     Br  0.38104028  0.20297610  0.70506162    -0.00700
Br2582     Br  0.37903257  0.23002099  0.67714900    -0.00800
Br2583     Br  0.32266766  0.22812471  0.73403410    -0.00800
Br2584     Br  0.32797811  0.26208802  0.70814159    -0.00800
C2585       C  0.27034847  0.32937272  0.62645861    -0.01900
C2586       C  0.27224174  0.31006616  0.62401535     0.07800
C2587       C  0.25523315  0.29188863  0.61618624    -0.02000
C2588       C  0.23733274  0.29365757  0.61017037    -0.02000
C2589       C  0.23625394  0.31346819  0.61201170     0.07900
C2590       C  0.25236799  0.33099693  0.62051338    -0.02200
Br2591     Br  0.24951898  0.35713296  0.62416503    -0.00700
Br2592     Br  0.29188241  0.35337903  0.63837103    -0.00800
Br2593     Br  0.21455812  0.26924285  0.59905113    -0.00800
Br2594     Br  0.25695559  0.26501318  0.61301081    -0.00800
C2595       C  0.45476612  0.38435402  0.60508608    -0.01900
C2596       C  0.45591149  0.38103648  0.61945861     0.07800
C2597       C  0.47747583  0.39158869  0.62603964    -0.02000
C2598       C  0.49753639  0.40421367  0.61820845    -0.02000
C2599       C  0.49617146  0.40799477  0.60398211     0.07900
C2600       C  0.47462211  0.39904944  0.59767852    -0.02200
Br2601     Br  0.47232404  0.40649145  0.57866767    -0.00700
Br2602     Br  0.42679956  0.36663839  0.59481588    -0.00800
Br2603     Br  0.52690397  0.41551443  0.62689796    -0.00800
Br2604     Br  0.47995458  0.38949153  0.64581723    -0.00800
loop_ 
_geom_bond_atom_site_label_1 
_geom_bond_atom_site_label_2 
_geom_bond_distance 
_geom_bond_site_symmetry_2 
_ccdc_geom_bond_type 
N1            N2   1.323       .  A
N1            C5   1.347       .  A
N1           Cu9   2.088       .  S
N2            C3   1.346       .  A
N2           Cu8   2.078       .  S
C3            C4   1.384       .  A
C3            H6   1.082       .  S
C4            C5   1.387       .  A
C4         C2576   1.486       .  S
C5            H7   1.082       .  S
Cu8          N11   2.077       .  S
Cu9          N19   2.088       .  S
Cu10         N12   2.072       .  S
Cu10         N18   2.074       .  S
N11          N12   1.321       .  A
N11          C15   1.347       .  A
N12          C13   1.343       .  A
C13          C14   1.386       .  A
C13          H16   1.082       .  S
C14          C15   1.389       .  A
C14        C2596   1.490       .  S
C15          H17   1.082       .  S
N18          N19   1.322       .  A
N18          C22   1.344       .  A
N19          C20   1.349       .  A
C20          C21   1.387       .  A
C20          H23   1.082       .  S
C21          C22   1.384       .  A
C21        C2586   1.486       .  S
C22          H24   1.082       .  S
N25          N26   1.322       .  A
N25          C29   1.343       .  A
N25         Cu33   2.058       .  S
N26          C27   1.345       .  A
N26         Cu32   2.079       .  S
C27          C28   1.384       .  A
C27          H30   1.082       .  S
C28          C29   1.379       .  A
C28        C2546   1.474       .  S
C29          H31   1.082       .  S
Cu32         N35   2.079       .  S
Cu33         N43   2.057       .  S
Cu34         N36   2.079       .  S
Cu34         N42   2.079       .  S
N35          N36   1.322       .  A
N35          C39   1.346       .  A
N36          C37   1.345       .  A
C37          C38   1.387       .  A
C37          H40   1.082       .  S
C38          C39   1.388       .  A
C38        C2566   1.491       .  S
C39          H41   1.082       .  S
N42          N43   1.322       .  A
N42          C46   1.345       .  A
N43          C44   1.344       .  A
C44          C45   1.380   1_655  A
C44          H47   1.082       .  S
C45          C46   1.384   1_455  A
C45        C2556   1.475       .  S
C46          H48   1.082   1_655  S
N49          N50   1.324       .  A
N49          C53   1.348       .  A
N49         Cu57   2.082       .  S
N50          C51   1.343       .  A
N50         Cu56   2.074       .  S
C51          C52   1.380       .  A
C51          H54   1.082       .  S
C52          C53   1.383       .  A
C52        C2559   1.476       .  S
C53          H55   1.082       .  S
Cu56         N59   2.074       .  S
Cu57         N67   2.082       .  S
Cu58         N60   2.080       .  S
Cu58         N66   2.081       .  S
N59          N60   1.322       .  A
N59          C63   1.347       .  A
N60          C61   1.345       .  A
C61          C62   1.384       .  A
C61          H64   1.082       .  S
C62          C63   1.384       .  A
C62        C1137   1.475       .  S
C63          H65   1.082       .  S
N66          N67   1.323       .  A
N66          C70   1.345       .  A
N67          C68   1.348       .  A
C68          C69   1.384       .  A
C68          H71   1.082       .  S
C69          C70   1.383       .  A
C69        C2589   1.480       .  S
C70          H72   1.082       .  S
N73          N74   1.325   1_655  A
N73          C77   1.350   1_655  A
N73         Cu81   2.092       .  S
N74          C75   1.345       .  A
N74         Cu80   2.081   1_455  S
C75          C76   1.381       .  A
C75          H78   1.082       .  S
C76          C77   1.386       .  A
C76        C2529   1.481       .  S
C77          H79   1.082       .  S
Cu80         N83   2.079       .  S
Cu81         N91   2.092       .  S
Cu82         N84   2.070       .  S
Cu82         N90   2.071       .  S
N83          N84   1.320       .  A
N83          C87   1.345       .  A
N84          C85   1.346       .  A
C85          C86   1.386       .  A
C85          H88   1.082       .  S
C86          C87   1.388       .  A
C86        C2539   1.488       .  S
C87          H89   1.082       .  S
N90          N91   1.323       .  A
N90          C94   1.343       .  A
N91          C92   1.349       .  A
C92          C93   1.389       .  A
C92          H95   1.082       .  S
C93          C94   1.383       .  A
C93        C2516   1.487       .  S
C94          H96   1.082       .  S
N97          N98   1.323       .  A
N97         C101   1.348       .  A
N97        Cu105   2.088   1_565  S
N98          C99   1.346       .  A
N98        Cu104   2.082   1_565  S
C99         C100   1.385       .  A
C99         H102   1.082       .  S
C100        C101   1.387       .  A
C100       C2496   1.487       .  S
C101        H103   1.082       .  S
Cu104       N107   2.080       .  S
Cu105       N115   2.088       .  S
Cu106       N108   2.095       .  S
Cu106       N114   2.096       .  S
N107        N108   1.321       .  A
N107        C111   1.346       .  A
N108        C109   1.348       .  A
C109        C110   1.393       .  A
C109        H112   1.081       .  S
C110        C111   1.390       .  A
C110       C2506   1.503       .  S
C111        H113   1.081       .  S
N114        N115   1.324       .  A
N114        C118   1.349       .  A
N115        C116   1.349       .  A
C116        C117   1.385       .  A
C116        H119   1.082       .  S
C117        C118   1.385       .  A
C117       C2486   1.486       .  S
C118        H120   1.082       .  S
N121        N122   1.324       .  A
N121        C125   1.349       .  A
N121       Cu129   2.096       .  S
N122        C123   1.346       .  A
N122       Cu128   2.072       .  S
C123        C124   1.381       .  A
C123        H126   1.082       .  S
C124        C125   1.385       .  A
C124       C2499   1.480       .  S
C125        H127   1.082       .  S
Cu128       N131   2.071       .  S
Cu129       N139   2.097       .  S
Cu130       N132   2.087       .  S
Cu130       N138   2.087       .  S
N131        N132   1.322       .  A
N131        C135   1.345       .  A
N132        C133   1.348       .  A
C133        C134   1.387       .  A
C133        H136   1.082       .  S
C134        C135   1.383       .  A
C134       C1079   1.476       .  S
C135        H137   1.082       .  S
N138        N139   1.324       .  A
N138        C142   1.347       .  A
N139        C140   1.349       .  A
C140        C141   1.387       .  A
C140        H143   1.082       .  S
C141        C142   1.384       .  A
C141       C2526   1.488       .  S
C142        H144   1.082       .  S
N145        C150   1.355       .  A
N145        C149   1.356       .  A
N145        H177   1.037       .  S
N146        C153   1.352       .  A
N146        C154   1.351       .  A
N147        C152   1.354       .  A
N147        C151   1.355       .  A
N147        H178   1.037       .  S
N148        C155   1.354       .  A
N148        C156   1.355       .  A
C149        C157   1.387       .  A
C149        C165   1.421       .  A
C150        C166   1.420       .  A
C150        C158   1.387       .  A
C151        C159   1.386       .  A
C151        C168   1.418       .  A
C152        C167   1.419       .  A
C152        C160   1.388       .  A
C153        C165   1.415       .  A
C153        C161   1.386       .  A
C154        C168   1.416       .  A
C154        C162   1.387       .  A
C155        C163   1.387       .  A
C155        C166   1.420       .  A
C156        C164   1.386       .  A
C156        C167   1.418       .  A
C157        C158   1.376       .  A
C157        H169   1.082       .  S
C158        H170   1.082       .  S
C159        C160   1.375       .  A
C159        H171   1.082       .  S
C160        H172   1.082       .  S
C161        C162   1.370       .  A
C161        H173   1.082       .  S
C162        H174   1.082       .  S
C163        C164   1.374       .  A
C163        H175   1.082       .  S
C164        H176   1.082       .  S
C165       C2469   1.496       .  S
C166       C2476   1.498       .  S
C167       C2509   1.498       .  S
C168       C2456   1.495       .  S
N179        N180   1.322       .  A
N179        C183   1.348       .  A
N179       Cu187   2.087       .  S
N180        C181   1.344       .  A
N180       Cu186   2.070       .  S
C181        C182   1.383       .  A
C181        H184   1.082       .  S
C182        C183   1.388       .  A
C182       C2479   1.487       .  S
C183        H185   1.082       .  S
Cu186       N189   2.068       .  S
Cu187       N197   2.088       .  S
Cu188       N190   2.071       .  S
Cu188       N196   2.072       .  S
N189        N190   1.320       .  A
N189        C193   1.341       .  A
N190        C191   1.347       .  A
C191        C192   1.387       .  A
C191        H194   1.082       .  S
C192        C193   1.384       .  A
C192       C2446   1.485       .  S
C193        H195   1.082       .  S
N196        N197   1.323       .  A
N196        C200   1.344       .  A
N197        C198   1.347       .  A
C198        C199   1.386       .  A
C198        H201   1.082       .  S
C199        C200   1.382       .  A
C199        C956   1.474       .  S
C200        H202   1.082       .  S
N203        C208   1.354       .  A
N203        C207   1.351       .  A
N203        H235   1.035       .  S
N204        C211   1.351       .  A
N204        C212   1.352       .  A
N205        C210   1.353       .  A
N205        C209   1.355       .  A
N205        H236   1.038       .  S
N206        C213   1.353       .  A
N206        C214   1.350       .  A
C207        C215   1.387       .  A
C207        C223   1.415       .  A
C208        C224   1.417       .  A
C208        C216   1.388       .  A
C209        C217   1.387       .  A
C209        C226   1.419       .  A
C210        C225   1.418       .  A
C210        C218   1.387       .  A
C211        C223   1.414       .  A
C211        C219   1.386       .  A
C212        C226   1.415       .  A
C212        C220   1.387       .  A
C213        C221   1.386       .  A
C213        C224   1.416       .  A
C214        C222   1.388       .  A
C214        C225   1.417       .  A
C215        C216   1.373       .  A
C215        H227   1.082       .  S
C216        H228   1.082       .  S
C217        C218   1.378       .  A
C217        H229   1.082       .  S
C218        H230   1.082       .  S
C219        C220   1.370       .  A
C219        H231   1.082       .  S
C220        H232   1.082       .  S
C221        C222   1.370       .  A
C221        H233   1.082       .  S
C222        H234   1.082       .  S
C223       C2436   1.485       .  S
C224       C2449   1.493       .  S
C225       C2599   1.495       .  S
C226       C2426   1.495       .  S
N237        N238   1.321       .  A
N237        C241   1.346       .  A
N237       Cu245   2.074       .  S
N238        C239   1.341       .  A
N238       Cu244   2.066       .  S
C239        C240   1.384       .  A
C239        H242   1.082       .  S
C240        C241   1.387       .  A
C240       C2439   1.485       .  S
C241        H243   1.081       .  S
Cu244       N247   2.067       .  S
Cu245       N255   2.075       .  S
Cu246       N248   2.077       .  S
Cu246       N254   2.078       .  S
N247        N248   1.321       .  A
N247        C251   1.343       .  A
N248        C249   1.347       .  A
C249        C250   1.386       .  A
C249        H252   1.082       .  S
C250        C251   1.382       .  A
C250       C2416   1.479       .  S
C251        H253   1.082       .  S
N254        N255   1.324       .  A
N254        C258   1.344       .  A
N255        C256   1.346       .  A
C256        C257   1.383       .  A
C256        H259   1.082       .  S
C257        C258   1.383       .  A
C257       C1202   1.472       .  S
C258        H260   1.082       .  S
N261        N262   1.320       .  A
N261        C265   1.346       .  A
N261       Cu269   2.074       .  S
N262        C263   1.344       .  A
N262       Cu268   2.076       .  S
C263        C264   1.388       .  A
C263        H266   1.081       .  S
C264        C265   1.389       .  A
C264       C2466   1.494       .  S
C265        H267   1.082       .  S
Cu268       N271   2.077       .  S
Cu269       N279   2.075       .  S
Cu270       N272   2.072       .  S
Cu270       N278   2.073       .  S
N271        N272   1.321       .  A
N271        C275   1.344       .  A
N272        C273   1.346       .  A
C273        C274   1.387       .  A
C273        H276   1.082       .  S
C274        C275   1.386       .  A
C274       C2406   1.488       .  S
C275        H277   1.082       .  S
N278        N279   1.323       .  A
N278        C282   1.346       .  A
N279        C280   1.344       .  A
C280        C281   1.383       .  A
C280        H283   1.082       .  S
C281        C282   1.383       .  A
C281        C884   1.472       .  S
C282        H284   1.082       .  S
N285        C290   1.356       .  A
N285        C289   1.355       .  A
N285        H317   1.041       .  S
N286        C293   1.349       .  A
N286        C294   1.351       .  A
N287        C292   1.353       .  A
N287        C291   1.355       .  A
N287        H318   1.039       .  S
N288        C295   1.351       .  A
N288        C296   1.351       .  A
C289        C297   1.387       .  A
C289        C305   1.417       .  A
C290        C306   1.419       .  A
C290        C298   1.387       .  A
C291        C299   1.387       .  A
C291        C308   1.418       .  A
C292        C307   1.415       .  A
C292        C300   1.386       .  A
C293        C305   1.412       .  A
C293        C301   1.387       .  A
C294        C308   1.414       .  A
C294        C302   1.386       .  A
C295        C303   1.388       .  A
C295        C306   1.417       .  A
C296        C304   1.383       .  A
C296        C307   1.410       .  A
C297        C298   1.373       .  A
C297        H309   1.082       .  S
C298        H310   1.082       .  S
C299        C300   1.377       .  A
C299        H311   1.082       .  S
C300        H312   1.082       .  S
C301        C302   1.367       .  A
C301        H313   1.082       .  S
C302        H314   1.082       .  S
C303        C304   1.375       .  A
C303        H315   1.082       .  S
C304        H316   1.082       .  S
C305       C2409   1.488       .  S
C306       C2419   1.533       .  S
C307       C2536   1.493       .  S
C308       C2569   1.493       .  S
N319        N320   1.324       .  A
N319        C323   1.344       .  A
N319       Cu327   2.075       .  S
N320        C321   1.345       .  A
N320       Cu326   2.075       .  S
C321        C322   1.382       .  A
C321        H324   1.082       .  S
C322        C323   1.380       .  A
C322       C2386   1.474       .  S
C323        H325   1.082       .  S
Cu326       N329   2.075       .  S
Cu327       N337   2.075       .  S
Cu328       N330   2.079       .  S
Cu328       N336   2.078       .  S
N329        N330   1.322       .  A
N329        C333   1.347       .  A
N330        C331   1.344       .  A
C331        C332   1.385       .  A
C331        H334   1.082       .  S
C332        C333   1.387       .  A
C332       C2459   1.487       .  S
C333        H335   1.082       .  S
N336        N337   1.322       .  A
N336        C340   1.345       .  A
N337        C338   1.347       .  A
C338        C339   1.384   1_545  A
C338        H341   1.082       .  S
C339        C340   1.382   1_565  A
C339       C2396   1.479       .  S
C340        H342   1.082       .  S
N343        N344   1.323       .  A
N343        C347   1.347       .  A
N343       Cu351   2.087       .  S
N344        C345   1.345       .  A
N344       Cu350   2.072       .  S
C345        C346   1.383       .  A
C345        H348   1.082       .  S
C346        C347   1.387       .  A
C346       C2366   1.485       .  S
C347        H349   1.082       .  S
Cu350       N353   2.071       .  S
Cu351       N361   2.088       .  S
Cu352       N354   2.087       .  S
Cu352       N360   2.089       .  S
N353        N354   1.320       .  A
N353        C357   1.345       .  A
N354        C355   1.346       .  A
C355        C356   1.391       .  A
C355        H358   1.081       .  S
C356        C357   1.388       .  A
C356       C2429   1.496       .  S
C357        H359   1.081       .  S
N360        N361   1.323       .  A
N360        C364   1.347       .  A
N361        C362   1.349       .  A
C362        C363   1.387       .  A
C362        H365   1.082       .  S
C363        C364   1.386       .  A
C363       C2376   1.489       .  S
C364        H366   1.082       .  S
N367        N368   1.323       .  A
N367        C371   1.350       .  A
N367       Cu375   2.097       .  S
N368        C369   1.345       .  A
N368       Cu374   2.069       .  S
C369        C370   1.380       .  A
C369        H372   1.082       .  S
C370        C371   1.387       .  A
C370       C2399   1.481       .  S
C371        H373   1.082       .  S
Cu374       N377   2.068       .  S
Cu375       N385   2.097       .  S
Cu376       N378   2.086       .  S
Cu376       N384   2.087       .  S
N377        N378   1.322       .  A
N377        C381   1.344       .  A
N378        C379   1.348       .  A
C379        C380   1.386       .  A
C379        H382   1.082       .  S
C380        C381   1.382       .  A
C380       C1021   1.474       .  S
C381        H383   1.082       .  S
N384        N385   1.324       .  A
N384        C388   1.346       .  A
N385        C386   1.350       .  A
C386        C387   1.388       .  A
C386        H389   1.082       .  S
C387        C388   1.385       .  A
C387       C2379   1.491       .  S
C388        H390   1.082       .  S
O391       Cu399   2.027       .  S
O391        C401   1.280       .  A
O392       Cu399   2.028       .  S
O392        C402   1.280       .  A
O393       Cu399   2.000       .  S
O393        C403   1.276       .  A
O394       Cu399   2.001       .  S
O394        C404   1.276       .  A
O395       Cu400   2.008       .  S
O395        C404   1.278       .  A
O396       Cu400   2.010       .  S
O396        C403   1.278       .  A
O397       Cu400   2.004       .  S
O397        C402   1.276       .  A
O398       Cu400   2.010       .  S
O398        C401   1.277       .  A
Cu399      Cu400   2.374       .  S
C401       C2519   1.481       .  S
C402       C2346   1.482       .  S
C403       C2356   1.480       .  S
C404       C2369   1.476       .  S
O405       Cu413   2.021       .  S
O405        C415   1.279       .  A
O406       Cu413   2.011       .  S
O406        C416   1.278       .  A
O407       Cu413   2.019       .  S
O407        C417   1.279       .  A
O408       Cu413   2.011       .  S
O408        C418   1.277       .  A
O409       Cu414   2.008       .  S
O409        C418   1.278       .  A
O410       Cu414   1.995       .  S
O410        C417   1.276       .  A
O411       Cu414   1.995       .  S
O411        C416   1.276       .  A
O412       Cu414   1.991       .  S
O412        C415   1.274       .  A
Cu413      Cu414   2.368       .  S
C415       C2326   1.499       .  S
C416       C2549   1.475       .  S
C417       C2336   1.483       .  S
C418       C2389   1.476       .  S
O419       Cu427   2.012       .  S
O419        C429   1.278       .  A
O420       Cu427   2.013       .  S
O420        C430   1.277       .  A
O421       Cu427   2.013       .  S
O421        C431   1.279       .  A
O422       Cu427   2.016       .  S
O422        C432   1.278       .  A
O423       Cu428   2.006       .  S
O423        C432   1.277       .  A
O424       Cu428   2.007       .  S
O424        C431   1.277       .  A
O425       Cu428   2.034       .  S
O425        C430   1.281       .  A
O426       Cu428   2.034       .  S
O426        C429   1.281       .  A
Cu427      Cu428   2.372       .  S
C429       C2489   1.487       .  S
C430       C2319   1.488       .  S
C431       C2309   1.480       .  S
C432       C2579   1.481       .  S
N433        N434   1.325       .  A
N433        C437   1.348       .  A
N433       Cu441   2.088       .  S
N434        C435   1.347       .  A
N434       Cu440   2.090       .  S
C435        C436   1.383       .  A
C435        H438   1.082       .  S
C436        C437   1.384       .  A
C436       C2316   1.483       .  S
C437        H439   1.082       .  S
Cu440       N443   2.089       .  S
Cu441       N451   2.087       .  S
Cu442       N444   2.076       .  S
Cu442       N450   2.078       .  S
N443        N444   1.320       .  A
N443        C447   1.349       .  A
N444        C445   1.344       .  A
C445        C446   1.388       .  A
C445        H448   1.081       .  S
C446        C447   1.393       .  A
C446       C2296   1.498       .  S
C447        H449   1.082       .  S
N450        N451   1.323       .  A
N450        C454   1.345       .  A
N451        C452   1.349       .  A
C452        C453   1.386       .  A
C452        H455   1.082       .  S
C453        C454   1.382       .  A
C453       C2286   1.482       .  S
C454        H456   1.082       .  S
N457        N458   1.324       .  A
N457        C461   1.348       .  A
N457       Cu465   2.089       .  S
N458        C459   1.342       .  A
N458       Cu464   2.064       .  S
C459        C460   1.378       .  A
C459        H462   1.082       .  S
C460        C461   1.385       .  A
C460       C2339   1.475       .  S
C461        H463   1.082       .  S
Cu464       N467   2.064       .  S
Cu465       N475   2.090   1_655  S
Cu466       N468   2.074       .  S
Cu466       N474   2.075   1_655  S
N467        N468   1.320       .  A
N467        C471   1.344       .  A
N468        C469   1.345       .  A
C469        C470   1.387       .  A
C469        H472   1.082       .  S
C470        C471   1.385       .  A
C470       C2276   1.484       .  S
C471        H473   1.082       .  S
N474        N475   1.324       .  A
N474        C478   1.344       .  A
N475        C476   1.349       .  A
C476        C477   1.386       .  A
C476        H479   1.082       .  S
C477        C478   1.379       .  A
C477       C2266   1.479       .  S
C478        H480   1.082       .  S
N481        N482   1.324       .  A
N481        C485   1.348       .  A
N481       Cu489   2.090       .  S
N482        C483   1.347       .  A
N482       Cu488   2.087       .  S
C483        C484   1.384       .  A
C483        H486   1.082       .  S
C484        C485   1.386       .  A
C484       C2269   1.486       .  S
C485        H487   1.082       .  S
Cu488       N491   2.087       .  S
Cu489       N499   2.090       .  S
Cu490       N492   2.084       .  S
Cu490       N498   2.084       .  S
N491        N492   1.323       .  A
N491        C495   1.348       .  A
N492        C493   1.347       .  A
C493        C494   1.385       .  A
C493        H496   1.082       .  S
C494        C495   1.386       .  A
C494       C1555   1.480       .  S
C495        H497   1.082       .  S
N498        N499   1.323       .  A
N498        C502   1.346       .  A
N499        C500   1.348       .  A
C500        C501   1.388       .  A
C500        H503   1.082       .  S
C501        C502   1.386       .  A
C501       C2289   1.492       .  S
C502        H504   1.082       .  S
N505        C510   1.353       .  A
N505        C509   1.353       .  A
N505        H537   1.039       .  S
N506        C513   1.352       .  A
N506        C514   1.351       .  A
N507        C512   1.353       .  A
N507        C511   1.351       .  A
N507        H538   1.038       .  S
N508        C515   1.350       .  A
N508        C516   1.349       .  A
C509        C517   1.386       .  A
C509        C525   1.415       .  A
C510        C526   1.417       .  A
C510        C518   1.388       .  A
C511        C519   1.387       .  A
C511        C528   1.414       .  A
C512        C527   1.414       .  A
C512        C520   1.387       .  A
C513        C525   1.413       .  A
C513        C521   1.385       .  A
C514        C528   1.414       .  A
C514        C522   1.387       .  A
C515        C523   1.386       .  A
C515        C526   1.411       .  A
C516        C524   1.387       .  A
C516        C527   1.412       .  A
C517        C518   1.376       .  A
C517        H529   1.082       .  S
C518        H530   1.082       .  S
C519        C520   1.373       .  A
C519        H531   1.082       .  S
C520        H532   1.082       .  S
C521        C522   1.372       .  A
C521        H533   1.082       .  S
C522        H534   1.082       .  S
C523        C524   1.375       .  A
C523        H535   1.082       .  S
C524        H536   1.082       .  S
C525       C2256   1.491       .  S
C526       C2239   1.491       .  S
C527       C2229   1.489       .  S
C528       C2246   1.487       .  S
N539        N540   1.321       .  A
N539        C543   1.350       .  A
N539       Cu547   2.086       .  S
N540        C541   1.342       .  A
N540       Cu546   2.071       .  S
C541        C542   1.384       .  A
C541        H544   1.082       .  S
C542        C543   1.390       .  A
C542       C2259   1.489       .  S
C543        H545   1.082       .  S
Cu546       N549   2.070       .  S
Cu547       N557   2.087   1_556  S
Cu548       N550   2.079       .  S
Cu548       N556   2.080   1_556  S
N549        N550   1.321       .  A
N549        C553   1.342       .  A
N550        C551   1.346       .  A
C551        C552   1.390       .  A
C551        H554   1.082       .  S
C552        C553   1.385       .  A
C552       C2216   1.490       .  S
C553        H555   1.081       .  S
N556        N557   1.323       .  A
N556        C560   1.348       .  A
N557        C558   1.346       .  A
C558        C559   1.385       .  A
C558        H561   1.082       .  S
C559        C560   1.384       .  A
C559       C1302   1.477       .  S
C560        H562   1.082       .  S
N563        N564   1.322       .  A
N563        C567   1.342       .  A
N563       Cu571   2.056       .  S
N564        C565   1.344       .  A
N564       Cu570   2.073       .  S
C565        C566   1.384       .  A
C565        H568   1.082       .  S
C566        C567   1.379       .  A
C566       C2329   1.473       .  S
C567        H569   1.082       .  S
Cu570       N573   2.072       .  S
Cu571       N581   2.056   1_545  S
Cu572       N574   2.069       .  S
Cu572       N580   2.070   1_545  S
N573        N574   1.321       .  A
N573        C577   1.343       .  A
N574        C575   1.344       .  A
C575        C576   1.385       .  A
C575        H578   1.081       .  S
C576        C577   1.386       .  A
C576       C2249   1.486       .  S
C577        H579   1.082       .  S
N580        N581   1.321       .  A
N580        C584   1.343       .  A
N581        C582   1.344       .  A
C582        C583   1.380       .  A
C582        H585   1.082       .  S
C583        C584   1.382       .  A
C583       C2209   1.469       .  S
C584        H586   1.082       .  S
N587        N588   1.323       .  A
N587        C591   1.347       .  A
N587       Cu595   2.084       .  S
N588        C589   1.346       .  A
N588       Cu594   2.083       .  S
C589        C590   1.387       .  A
C589        H592   1.082       .  S
C590        C591   1.387       .  A
C590       C2349   1.490       .  S
C591        H593   1.082       .  S
Cu594       N597   2.082       .  S
Cu595       N605   2.085       .  S
Cu596       N598   2.081       .  S
Cu596       N604   2.081       .  S
N597        N598   1.321       .  A
N597        C601   1.346       .  A
N598        C599   1.347       .  A
C599        C600   1.388       .  A
C599        H602   1.082       .  S
C600        C601   1.387       .  A
C600       C2199   1.492       .  S
C601        H603   1.082       .  S
N604        N605   1.324       .  A
N604        C608   1.344       .  A
N605        C606   1.349       .  A
C606        C607   1.385       .  A
C606        H609   1.082       .  S
C607        C608   1.381       .  A
C607       C2186   1.478       .  S
C608        H610   1.082       .  S
N611        N612   1.323       .  A
N611        C615   1.345       .  A
N611       Cu619   2.067       .  S
N612        C613   1.345       .  A
N612       Cu618   2.081       .  S
C613        C614   1.384       .  A
C613        H616   1.082       .  S
C614        C615   1.381       .  A
C614       C2206   1.477       .  S
C615        H617   1.082       .  S
Cu618       N621   2.081       .  S
Cu619       N629   2.068       .  S
Cu620       N622   2.088       .  S
Cu620       N628   2.088       .  S
N621        N622   1.323       .  A
N621        C625   1.348       .  A
N622        C623   1.346       .  A
C623        C624   1.385       .  A
C623        H626   1.082       .  S
C624        C625   1.384       .  A
C624       C1463   1.477       .  S
C625        H627   1.082       .  S
N628        N629   1.322       .  A
N628        C632   1.347       .  A
N629        C630   1.346       .  A
C630        C631   1.382       .  A
C630        H633   1.082       .  S
C631        C632   1.386       .  A
C631       C2189   1.481       .  S
C632        H634   1.082       .  S
N635        C640   1.355       .  A
N635        C639   1.353       .  A
N635        H667   1.035       .  S
N636        C643   1.352       .  A
N636        C644   1.354       .  A
N637        C642   1.351       .  A
N637        C641   1.352       .  A
N637        H668   1.037       .  S
N638        C645   1.351       .  A
N638        C646   1.350       .  A
C639        C647   1.388       .  A
C639        C655   1.420       .  A
C640        C656   1.419       .  A
C640        C648   1.386       .  A
C641        C649   1.387       .  A
C641        C658   1.415       .  A
C642        C657   1.413       .  A
C642        C650   1.387       .  A
C643        C655   1.418       .  A
C643        C651   1.387       .  A
C644        C658   1.417       .  A
C644        C652   1.386       .  A
C645        C653   1.385       .  A
C645        C656   1.412       .  A
C646        C654   1.388       .  A
C646        C657   1.414       .  A
C647        C648   1.375       .  A
C647        H659   1.082       .  S
C648        H660   1.082       .  S
C649        C650   1.376       .  A
C649        H661   1.082       .  S
C650        H662   1.082       .  S
C651        C652   1.373       .  A
C651        H663   1.082       .  S
C652        H664   1.082       .  S
C653        C654   1.370       .  A
C653        H665   1.082       .  S
C654        H666   1.082       .  S
C655       C2219   1.490       .  S
C656       C2176   1.493       .  S
C657       C2169   1.486       .  S
C658       C2279   1.494       .  S
N669        N670   1.322       .  A
N669        C673   1.348       .  A
N669       Cu677   2.079   1_556  S
N670        C671   1.343       .  A
N670       Cu676   2.071       .  S
C671        C672   1.384       .  A
C671        H674   1.082       .  S
C672        C673   1.386       .  A
C672       C2156   1.484       .  S
C673        H675   1.082       .  S
Cu676       N679   2.072       .  S
Cu677       N687   2.079       .  S
Cu678       N680   2.081   1_554  S
Cu678       N686   2.081       .  S
N679        N680   1.321       .  A
N679        C683   1.344       .  A
N680        C681   1.347       .  A
C681        C682   1.389       .  A
C681        H684   1.081       .  S
C682        C683   1.386       .  A
C682       C2179   1.491       .  S
C683        H685   1.082       .  S
N686        N687   1.322       .  A
N686        C690   1.348       .  A
N687        C688   1.345       .  A
C688        C689   1.385       .  A
C688        H691   1.082       .  S
C689        C690   1.385       .  A
C689       C1620   1.476       .  S
C690        H692   1.082       .  S
N693        C698   1.352       .  A
N693        C697   1.353       .  A
N693        H725   1.039       .  S
N694        C701   1.352       .  A
N694        C702   1.350       .  A
N695        C700   1.356       .  A
N695        C699   1.356       .  A
N695        H726   1.036       .  S
N696        C703   1.354       .  A
N696        C704   1.354       .  A
C697        C705   1.387       .  A
C697        C713   1.414       .  A
C698        C714   1.413       .  A
C698        C706   1.387       .  A
C699        C707   1.387       .  A
C699        C716   1.423       .  A
C700        C715   1.423       .  A
C700        C708   1.387       .  A
C701        C713   1.412       .  A
C701        C709   1.385       .  A
C702        C716   1.416       .  A
C702        C710   1.388       .  A
C703        C711   1.385       .  A
C703        C714   1.417       .  A
C704        C712   1.388       .  A
C704        C715   1.421       .  A
C705        C706   1.374       .  A
C705        H717   1.082       .  S
C706        H718   1.082       .  S
C707        C708   1.377       .  A
C707        H719   1.082       .  S
C708        H720   1.082       .  S
C709        C710   1.373       .  A
C709        H721   1.082       .  S
C710        H722   1.082       .  S
C711        C712   1.371       .  A
C711        H723   1.082       .  S
C712        H724   1.082       .  S
C713       C2159   1.489       .  S
C714       C2149   1.494       .  S
C715       C2299   1.501       .  S
C716       C2196   1.497       .  S
N727        N728   1.322       .  A
N727        C731   1.347       .  A
N727       Cu735   2.072   1_556  S
N728        C729   1.342       .  A
N728       Cu734   2.067       .  S
C729        C730   1.382       .  A
C729        H732   1.082       .  S
C730        C731   1.385       .  A
C730       C2236   1.480       .  S
C731        H733   1.082       .  S
Cu734       N737   2.067       .  S
Cu735       N745   2.072       .  S
Cu736       N738   2.075   1_554  S
Cu736       N744   2.075       .  S
N737        N738   1.321       .  A
N737        C741   1.343       .  A
N738        C739   1.347       .  A
C739        C740   1.387       .  A
C739        H742   1.082       .  S
C740        C741   1.384       .  A
C740       C2146   1.484       .  S
C741        H743   1.082       .  S
N744        N745   1.323       .  A
N744        C748   1.345       .  A
N745        C746   1.345       .  A
C746        C747   1.383       .  A
C746        H749   1.082       .  S
C747        C748   1.382       .  A
C747       C1374   1.470       .  S
C748        H750   1.082       .  S
N751        N752   1.323       .  A
N751        C755   1.348   1_655  A
N751       Cu759   2.087       .  S
N752        C753   1.343   1_655  A
N752       Cu758   2.064       .  S
C753        C754   1.378       .  A
C753        H756   1.082       .  S
C754        C755   1.384       .  A
C754       C2136   1.475       .  S
C755        H757   1.082       .  S
Cu758       N761   2.062       .  S
Cu759       N769   2.086       .  S
Cu760       N762   2.067       .  S
Cu760       N768   2.067       .  S
N761        N762   1.320       .  A
N761        C765   1.343       .  A
N762        C763   1.344       .  A
C763        C764   1.385       .  A
C763        H766   1.082       .  S
C764        C765   1.383       .  A
C764       C2166   1.480       .  S
C765        H767   1.082       .  S
N768        N769   1.323       .  A
N768        C772   1.343       .  A
N769        C770   1.348       .  A
C770        C771   1.386       .  A
C770        H773   1.082       .  S
C771        C772   1.380       .  A
C771       C2359   1.479       .  S
C772        H774   1.082       .  S
N775        N776   1.323       .  A
N775        C779   1.350   1_545  A
N775       Cu783   2.098       .  S
N776        C777   1.344   1_545  A
N776       Cu782   2.067       .  S
C777        C778   1.379       .  A
C777        H780   1.082       .  S
C778        C779   1.387       .  A
C778       C2126   1.479       .  S
C779        H781   1.082       .  S
Cu782       N785   2.066       .  S
Cu783       N793   2.098       .  S
Cu784       N786   2.063       .  S
Cu784       N792   2.064       .  S
N785        N786   1.320       .  A
N785        C789   1.341       .  A
N786        C787   1.346       .  A
C787        C788   1.385       .  A
C787        H790   1.082       .  S
C788        C789   1.382       .  A
C788       C2226   1.477       .  S
C789        H791   1.082       .  S
N792        N793   1.324       .  A
N792        C796   1.342       .  A
N793        C794   1.350       .  A
C794        C795   1.387       .  A
C794        H797   1.082       .  S
C795        C796   1.378       .  A
C795       C2306   1.480       .  S
C796        H798   1.082       .  S
N799        N800   1.322       .  A
N799        C803   1.345       .  A
N799       Cu807   2.076       .  S
N800        C801   1.345       .  A
N800       Cu806   2.073       .  S
C801        C802   1.385       .  A
C801        H804   1.082       .  S
C802        C803   1.384       .  A
C802       C2129   1.483       .  S
C803        H805   1.082       .  S
Cu806       N809   2.071       .  S
Cu807       N817   2.076       .  S
Cu808       N810   2.074       .  S
Cu808       N816   2.074       .  S
N809        N810   1.322       .  A
N809        C813   1.345       .  A
N810        C811   1.344       .  A
C811        C812   1.383       .  A
C811        H814   1.082       .  S
C812        C813   1.382       .  A
C812       C1405   1.469       .  S
C813        H815   1.082       .  S
N816        N817   1.322       .  A
N816        C820   1.345       .  A
N817        C818   1.346       .  A
C818        C819   1.383       .  A
C818        H821   1.082       .  S
C819        C820   1.383       .  A
C819       C2139   1.479       .  S
C820        H822   1.082       .  S
N823        N824   1.323       .  A
N823        C827   1.347   1_455  A
N823       Cu831   2.092       .  S
N824        C825   1.342       .  A
N824       Cu830   2.059       .  S
C825        C826   1.380   1_455  A
C825        H828   1.082   1_455  S
C826        C827   1.388       .  A
C826       C2106   1.483       .  S
C827        H829   1.082       .  S
Cu830       N833   2.057       .  S
Cu831       N841   2.091       .  S
Cu832       N834   2.073       .  S
Cu832       N840   2.075       .  S
N833        N834   1.318       .  A
N833        C837   1.341       .  A
N834        C835   1.345       .  A
C835        C836   1.389       .  A
C835        H838   1.081       .  S
C836        C837   1.386       .  A
C836       C2116   1.488       .  S
C837        H839   1.081       .  S
N840        N841   1.322       .  A
N840        C844   1.344       .  A
N841        C842   1.349       .  A
C842        C843   1.391       .  A
C842        H845   1.082       .  S
C843        C844   1.386       .  A
C843       C2099   1.494       .  S
C844        H846   1.082       .  S
N847        N848   1.322       .  A
N847        C851   1.349   1_565  A
N847       Cu855   2.083       .  S
N848        C849   1.344   1_565  A
N848       Cu854   2.073       .  S
C849        C850   1.381       .  A
C849        H852   1.082       .  S
C850        C851   1.387       .  A
C850       C2076   1.481       .  S
C851        H853   1.082       .  S
Cu854       N857   2.074       .  S
Cu855       N865   2.085       .  S
Cu856       N858   2.077       .  S
Cu856       N864   2.078       .  S
N857        N858   1.321       .  A
N857        C861   1.344       .  A
N858        C859   1.347       .  A
C859        C860   1.387       .  A
C859        H862   1.082       .  S
C860        C861   1.385       .  A
C860       C2086   1.487       .  S
C861        H863   1.082       .  S
N864        N865   1.325       .  A
N864        C868   1.345       .  A
N865        C866   1.346       .  A
C866        C867   1.384       .  A
C866        H869   1.082       .  S
C867        C868   1.382       .  A
C867       C2066   1.481       .  S
C868        H870   1.082       .  S
N871        N872   1.322       .  A
N871        C875   1.346       .  A
N871       Cu879   2.076       .  S
N872        C873   1.344       .  A
N872       Cu878   2.071       .  S
C873        C874   1.382       .  A
C873        H876   1.082       .  S
C874        C875   1.383       .  A
C874       C2079   1.477       .  S
C875        H877   1.082       .  S
Cu878       N881   2.070       .  S
Cu879       N889   2.075       .  S
Cu880       N882   2.081       .  S
Cu880       N888   2.082       .  S
N881        N882   1.323       .  A
N881        C885   1.344       .  A
N882        C883   1.347       .  A
C883        C884   1.385       .  A
C883        H886   1.082       .  S
C884        C885   1.382       .  A
C885        H887   1.082       .  S
N888        N889   1.323       .  A
N888        C892   1.346       .  A
N889        C890   1.346       .  A
C890        C891   1.382       .  A
C890        H893   1.082       .  S
C891        C892   1.384       .  A
C891       C2109   1.479       .  S
C892        H894   1.082       .  S
N895        N896   1.326       .  A
N895        C899   1.347       .  A
N895       Cu903   2.095       .  S
N896        C897   1.345       .  A
N896       Cu902   2.078       .  S
C897        C898   1.382       .  A
C897        H900   1.082       .  S
C898        C899   1.385       .  A
C898       C2036   1.482       .  S
C899        H901   1.082       .  S
Cu902       N905   2.076       .  S
Cu903       N913   2.094       .  S
Cu904       N906   2.048       .  S
Cu904       N912   2.049       .  S
N905        N906   1.319       .  A
N905        C909   1.346       .  A
N906        C907   1.339       .  A
C907        C908   1.381       .  A
C907        H910   1.082       .  S
C908        C909   1.390       .  A
C908       C2056   1.483       .  S
C909        H911   1.082       .  S
N912        N913   1.321       .  A
N912        C916   1.340       .  A
N913        C914   1.351       .  A
C914        C915   1.388       .  A
C914        H917   1.082       .  S
C915        C916   1.376       .  A
C915       C2046   1.475       .  S
C916        H918   1.082       .  S
N919        N920   1.321       .  A
N919        C923   1.344       .  A
N919       Cu927   2.065       .  S
N920        C921   1.342       .  A
N920       Cu926   2.063       .  S
C921        C922   1.381       .  A
C921        H924   1.082       .  S
C922        C923   1.382       .  A
C922       C2009   1.474       .  S
C923        H925   1.082       .  S
Cu926       N929   2.062       .  S
Cu927       N937   2.065       .  S
Cu928       N930   2.083       .  S
Cu928       N936   2.083       .  S
N929        N930   1.322       .  A
N929        C933   1.344       .  A
N930        C931   1.346       .  A
C931        C932   1.386       .  A
C931        H934   1.082       .  S
C932        C933   1.382       .  A
C932       C2026   1.481       .  S
C933        H935   1.082       .  S
N936        N937   1.323       .  A
N936        C940   1.345   1_565  A
N937        C938   1.345   1_565  A
C938        C939   1.380       .  A
C938        H941   1.082       .  S
C939        C940   1.383       .  A
C939       C2016   1.474       .  S
C940        H942   1.082       .  S
N943        N944   1.322       .  A
N943        C947   1.346       .  A
N943       Cu951   2.071       .  S
N944        C945   1.344       .  A
N944       Cu950   2.072       .  S
C945        C946   1.382       .  A
C945        H948   1.082       .  S
C946        C947   1.383       .  A
C946       C2019   1.477       .  S
C947        H949   1.082       .  S
Cu950       N953   2.072       .  S
Cu951       N961   2.071       .  S
Cu952       N954   2.086       .  S
Cu952       N960   2.086       .  S
N953        N954   1.323       .  A
N953        C957   1.346       .  A
N954        C955   1.346       .  A
C955        C956   1.385       .  A
C955        H958   1.082       .  S
C956        C957   1.382       .  A
C957        H959   1.082       .  S
N960        N961   1.323       .  A
N960        C964   1.348       .  A
N961        C962   1.344       .  A
C962        C963   1.381       .  A
C962        H965   1.082       .  S
C963        C964   1.385       .  A
C963       C2049   1.479       .  S
C964        H966   1.082       .  S
N967        C972   1.350       .  A
N967        C971   1.352       .  A
N967        H999   1.041       .  S
N968        C975   1.351       .  A
N968        C976   1.347       .  A
N969        C974   1.354       .  A
N969        C973   1.350       .  A
N969       H1000   1.041       .  S
N970        C977   1.348       .  A
N970        C978   1.349       .  A
C971        C979   1.387       .  A
C971        C987   1.414       .  A
C972        C988   1.413       .  A
C972        C980   1.387       .  A
C973        C981   1.387       .  A
C973        C990   1.414       .  A
C974        C989   1.415       .  A
C974        C982   1.386       .  A
C975        C987   1.410       .  A
C975        C983   1.385       .  A
C976        C990   1.411       .  A
C976        C984   1.388       .  A
C977        C985   1.387       .  A
C977        C988   1.410       .  A
C978        C986   1.386       .  A
C978        C989   1.410       .  A
C979        C980   1.380       .  A
C979        H991   1.082       .  S
C980        H992   1.082       .  S
C981        C982   1.381       .  A
C981        H993   1.082       .  S
C982        H994   1.082       .  S
C983        C984   1.375       .  A
C983        H995   1.082       .  S
C984        H996   1.082       .  S
C985        C986   1.374       .  A
C985        H997   1.082       .  S
C986        H998   1.082       .  S
C987       C1996   1.494       .  S
C988       C1986   1.486       .  S
C989       C2089   1.494       .  S
C990       C2029   1.483       .  S
N1001      N1002   1.318       .  A
N1001      C1005   1.349       .  A
N1001     Cu1009   2.082       .  S
N1002      C1003   1.337       .  A
N1002     Cu1008   2.043       .  S
C1003      C1004   1.380       .  A
C1003      H1006   1.082       .  S
C1004      C1005   1.392       .  A
C1004      C1979   1.484       .  S
C1005      H1007   1.081       .  S
Cu1008     N1011   2.042       .  S
Cu1009     N1019   2.086       .  S
Cu1010     N1012   2.085       .  S
Cu1010     N1018   2.089       .  S
N1011      N1012   1.319       .  A
N1011      C1015   1.338       .  A
N1012      C1013   1.349       .  A
C1013      C1014   1.391       .  A
C1013      H1016   1.082       .  S
C1014      C1015   1.379       .  A
C1014      C1989   1.481       .  S
C1015      H1017   1.082       .  S
N1018      N1019   1.326       .  A
N1018      C1022   1.346       .  A
N1019      C1020   1.346       .  A
C1020      C1021   1.382       .  A
C1020      H1023   1.082       .  S
C1021      C1022   1.383       .  A
C1022      H1024   1.082       .  S
N1025      C1030   1.350       .  A
N1025      C1029   1.354       .  A
N1025      H1057   1.036       .  S
N1026      C1033   1.354       .  A
N1026      C1034   1.350       .  A
N1027      C1032   1.356       .  A
N1027      C1031   1.353       .  A
N1027      H1058   1.036       .  S
N1028      C1035   1.352       .  A
N1028      C1036   1.352       .  A
C1029      C1037   1.386       .  A
C1029      C1045   1.416       .  A
C1030      C1046   1.416       .  A
C1030      C1038   1.388       .  A
C1031      C1039   1.388       .  A
C1031      C1048   1.419       .  A
C1032      C1047   1.419       .  A
C1032      C1040   1.386       .  A
C1033      C1045   1.416       .  A
C1033      C1041   1.385       .  A
C1034      C1048   1.416       .  A
C1034      C1042   1.388       .  A
C1035      C1043   1.387       .  A
C1035      C1046   1.415       .  A
C1036      C1044   1.386       .  A
C1036      C1047   1.414       .  A
C1037      C1038   1.377       .  A
C1037      H1049   1.082       .  S
C1038      H1050   1.082       .  S
C1039      C1040   1.375       .  A
C1039      H1051   1.082       .  S
C1040      H1052   1.082       .  S
C1041      C1042   1.371       .  A
C1041      H1053   1.082       .  S
C1042      H1054   1.082       .  S
C1043      C1044   1.370       .  A
C1043      H1055   1.082       .  S
C1044      H1056   1.082       .  S
C1045      C1969   1.498       .  S
C1046      C1956   1.486       .  S
C1047      C1949   1.493       .  S
C1048      C2119   1.487       .  S
N1059      N1060   1.319       .  A
N1059      C1063   1.350       .  A
N1059     Cu1067   2.095       .  S
N1060      C1061   1.338       .  A
N1060     Cu1066   2.043       .  S
C1061      C1062   1.380       .  A
C1061      H1064   1.082       .  S
C1062      C1063   1.394       .  A
C1062      C1999   1.489       .  S
C1063      H1065   1.081       .  S
Cu1066     N1069   2.044       .  S
Cu1067     N1077   2.097       .  S
Cu1068     N1070   2.078       .  S
Cu1068     N1076   2.081       .  S
N1069      N1070   1.319       .  A
N1069      C1073   1.337       .  A
N1070      C1071   1.348       .  A
C1071      C1072   1.389       .  A
C1071      H1074   1.082       .  S
C1072      C1073   1.380       .  A
C1072      C1959   1.480       .  S
C1073      H1075   1.082       .  S
N1076      N1077   1.326       .  A
N1076      C1080   1.346       .  A
N1077      C1078   1.347       .  A
C1078      C1079   1.385       .  A
C1078      H1081   1.082       .  S
C1079      C1080   1.382       .  A
C1080      H1082   1.082       .  S
N1083      C1088   1.353       .  A
N1083      C1087   1.350       .  A
N1083      H1115   1.034       .  S
N1084      C1091   1.353       .  A
N1084      C1092   1.353       .  A
N1085      C1090   1.355       .  A
N1085      C1089   1.351       .  A
N1085      H1116   1.037       .  S
N1086      C1093   1.347       .  A
N1086      C1094   1.346       .  A
C1087      C1095   1.387       .  A
C1087      C1103   1.415       .  A
C1088      C1104   1.417       .  A
C1088      C1096   1.387       .  A
C1089      C1097   1.387       .  A
C1089      C1106   1.415       .  A
C1090      C1105   1.418       .  A
C1090      C1098   1.387       .  A
C1091      C1103   1.418       .  A
C1091      C1099   1.387       .  A
C1092      C1106   1.416       .  A
C1092      C1100   1.387       .  A
C1093      C1101   1.387       .  A
C1093      C1104   1.409       .  A
C1094      C1102   1.386       .  A
C1094      C1105   1.407       .  A
C1095      C1096   1.375       .  A
C1095      H1107   1.081       .  S
C1096      H1108   1.082       .  S
C1097      C1098   1.375       .  A
C1097      H1109   1.081       .  S
C1098      H1110   1.082       .  S
C1099      C1100   1.369       .  A
C1099      H1111   1.082       .  S
C1100      H1112   1.082       .  S
C1101      C1102   1.372       .  A
C1101      H1113   1.082       .  S
C1102      H1114   1.082       .  S
C1103      C1936   1.488       .  S
C1104      C1976   1.485       .  S
C1105      C1929   1.490       .  S
C1106      C2059   1.487       .  S
N1117      N1118   1.318       .  A
N1117      C1121   1.349       .  A
N1117     Cu1125   2.077       .  S
N1118      C1119   1.336       .  A
N1118     Cu1124   2.049       .  S
C1119      C1120   1.382       .  A
C1119      H1122   1.082       .  S
C1120      C1121   1.392       .  A
C1120      C1939   1.487       .  S
C1121      H1123   1.081       .  S
Cu1124     N1127   2.050       .  S
Cu1125     N1135   2.081       .  S
Cu1126     N1128   2.096       .  S
Cu1126     N1134   2.098       .  S
N1127      N1128   1.318       .  A
N1127      C1131   1.341       .  A
N1128      C1129   1.350       .  A
C1129      C1130   1.395       .  A
C1129      H1132   1.081       .  S
C1130      C1131   1.384       .  A
C1130      C1966   1.494       .  S
C1131      H1133   1.082       .  S
N1134      N1135   1.327       .  A
N1134      C1138   1.347       .  A
N1135      C1136   1.345       .  A
C1136      C1137   1.382       .  A
C1136      H1139   1.082       .  S
C1137      C1138   1.384       .  A
C1138      H1140   1.082       .  S
N1141      N1142   1.322       .  A
N1141      C1145   1.347       .  A
N1141     Cu1149   2.077       .  S
N1142      C1143   1.344       .  A
N1142     Cu1148   2.074       .  S
C1143      C1144   1.384       .  A
C1143      H1146   1.082       .  S
C1144      C1145   1.385       .  A
C1144      C1906   1.485       .  S
C1145      H1147   1.082       .  S
Cu1148     N1151   2.073       .  S
Cu1149     N1159   2.077       .  S
Cu1150     N1152   2.065       .  S
Cu1150     N1158   2.065       .  S
N1151      N1152   1.321       .  A
N1151      C1155   1.345       .  A
N1152      C1153   1.343       .  A
C1153      C1154   1.384       .  A
C1153      H1156   1.082       .  S
C1154      C1155   1.384       .  A
C1154      C1926   1.481       .  S
C1155      H1157   1.082       .  S
N1158      N1159   1.323       .  A
N1158      C1162   1.344       .  A
N1159      C1160   1.345       .  A
C1160      C1161   1.381       .  A
C1160      H1163   1.082       .  S
C1161      C1162   1.379       .  A
C1161      C1919   1.472       .  S
C1162      H1164   1.082       .  S
N1165      N1166   1.323       .  A
N1165      C1169   1.348       .  A
N1165     Cu1173   2.091       .  S
N1166      C1167   1.346       .  A
N1166     Cu1172   2.078       .  S
C1167      C1168   1.384       .  A
C1167      H1170   1.082       .  S
C1168      C1169   1.387       .  A
C1168      C1886   1.487       .  S
C1169      H1171   1.082       .  S
Cu1172     N1175   2.077       .  S
Cu1173     N1183   2.090       .  S
Cu1174     N1176   2.074       .  S
Cu1174     N1182   2.075       .  S
N1175      N1176   1.322       .  A
N1175      C1179   1.346       .  A
N1176      C1177   1.343       .  A
C1177      C1178   1.386       .  A
C1177      H1180   1.082       .  S
C1178      C1179   1.388       .  A
C1178      C1946   1.489       .  S
C1179      H1181   1.082       .  S
N1182      N1183   1.322       .  A
N1182      C1186   1.347   1_455  A
N1183      C1184   1.347   1_455  A
C1184      C1185   1.387       .  A
C1184      H1187   1.082       .  S
C1185      C1186   1.385       .  A
C1185      C1896   1.487       .  S
C1186      H1188   1.082       .  S
N1189      N1190   1.322       .  A
N1189      C1193   1.350       .  A
N1189     Cu1197   2.092       .  S
N1190      C1191   1.342       .  A
N1190     Cu1196   2.061       .  S
C1191      C1192   1.379       .  A
C1191      H1194   1.082       .  S
C1192      C1193   1.388       .  A
C1192      C1899   1.481       .  S
C1193      H1195   1.082       .  S
Cu1196     N1199   2.060       .  S
Cu1197     N1207   2.092       .  S
Cu1198     N1200   2.079       .  S
Cu1198     N1206   2.080       .  S
N1199      N1200   1.320       .  A
N1199      C1203   1.342       .  A
N1200      C1201   1.348       .  A
C1201      C1202   1.386       .  A
C1201      H1204   1.082       .  S
C1202      C1203   1.381       .  A
C1203      H1205   1.082       .  S
N1206      N1207   1.325       .  A
N1206      C1210   1.344       .  A
N1207      C1208   1.349       .  A
C1208      C1209   1.384       .  A
C1208      H1211   1.082       .  S
C1209      C1210   1.380       .  A
C1209      C1916   1.477       .  S
C1210      H1212   1.082       .  S
O1213     Cu1221   2.023       .  S
O1213      C1223   1.280       .  A
O1214     Cu1221   2.036       .  S
O1214      C1224   1.280       .  A
O1215     Cu1221   2.009       .  S
O1215      C1225   1.277       .  A
O1216     Cu1221   2.014       .  S
O1216      C1226   1.279       .  A
O1217     Cu1222   2.013       .  S
O1217      C1226   1.277       .  A
O1218     Cu1222   2.021       .  S
O1218      C1225   1.279       .  A
O1219     Cu1222   2.013       .  S
O1219      C1224   1.277       .  A
O1220     Cu1222   2.009       .  S
O1220      C1223   1.277       .  A
Cu1221    Cu1222   2.365       .  S
C1223      C1879   1.484       .  S
C1224      C2096   1.511       .  S
C1225      C2039   1.483       .  S
C1226      C1869   1.487       .  S
O1227     Cu1235   2.016       .  S
O1227      C1237   1.278       .  A
O1228     Cu1235   2.036       .  S
O1228      C1238   1.281       .  A
O1229     Cu1235   1.992       .  S
O1229      C1239   1.273       .  A
O1230     Cu1235   1.985       .  S
O1230      C1240   1.274       .  A
O1231     Cu1236   2.028       .  S
O1231      C1240   1.280       .  A
O1232     Cu1236   2.041       .  S
O1232      C1239   1.281       .  A
O1233     Cu1236   2.026       .  S
O1233      C1238   1.278       .  A
O1234     Cu1236   2.023       .  S
O1234      C1237   1.279       .  A
Cu1235    Cu1236   2.365       .  S
C1237      C2069   1.484       .  S
C1238      C1846   1.492       .  S
C1239      C1909   1.506       .  S
C1240      C1859   1.479       .  S
N1241      N1242   1.323   1_455  A
N1241      C1245   1.346   1_455  A
N1241     Cu1249   2.074       .  S
N1242      C1243   1.344       .  A
N1242     Cu1248   2.070   1_655  S
C1243      C1244   1.381       .  A
C1243      H1246   1.082       .  S
C1244      C1245   1.382       .  A
C1244      C1829   1.475       .  S
C1245      H1247   1.082       .  S
Cu1248     N1251   2.068       .  S
Cu1249     N1259   2.073       .  S
Cu1250     N1252   2.069       .  S
Cu1250     N1258   2.068       .  S
N1251      N1252   1.321       .  A
N1251      C1255   1.344       .  A
N1252      C1253   1.341       .  A
C1253      C1254   1.385       .  A
C1253      H1256   1.082       .  S
C1254      C1255   1.385       .  A
C1254      C1836   1.483       .  S
C1255      H1257   1.081       .  S
N1258      N1259   1.322       .  A
N1258      C1262   1.344       .  A
N1259      C1260   1.345       .  A
C1260      C1261   1.383       .  A
C1260      H1263   1.082       .  S
C1261      C1262   1.383       .  A
C1261      C1866   1.478       .  S
C1262      H1264   1.082       .  S
N1265      N1266   1.320       .  A
N1265      C1269   1.343   1_565  A
N1265     Cu1273   2.058       .  S
N1266      C1267   1.343   1_565  A
N1266     Cu1272   2.064       .  S
C1267      C1268   1.383       .  A
C1267      H1270   1.082       .  S
C1268      C1269   1.382       .  A
C1268      C1806   1.475       .  S
C1269      H1271   1.082       .  S
Cu1272     N1275   2.062       .  S
Cu1273     N1283   2.059       .  S
Cu1274     N1276   2.085       .  S
Cu1274     N1282   2.086       .  S
N1275      N1276   1.320       .  A
N1275      C1279   1.340       .  A
N1276      C1277   1.348       .  A
C1277      C1278   1.391       .  A
C1277      H1280   1.081       .  S
C1278      C1279   1.384       .  A
C1278      C1816   1.491       .  S
C1279      H1281   1.082       .  S
N1282      N1283   1.323       .  A
N1282      C1286   1.345       .  A
N1283      C1284   1.343       .  A
C1284      C1285   1.380       .  A
C1284      H1287   1.082       .  S
C1285      C1286   1.386       .  A
C1285      C1856   1.478       .  S
C1286      H1288   1.082       .  S
N1289      N1290   1.321       .  A
N1289      C1293   1.345       .  A
N1289     Cu1297   2.064       .  S
N1290      C1291   1.342       .  A
N1290     Cu1296   2.068       .  S
C1291      C1292   1.382       .  A
C1291      H1294   1.082       .  S
C1292      C1293   1.382       .  A
C1292      C1809   1.475       .  S
C1293      H1295   1.082       .  S
Cu1296     N1299   2.069       .  S
Cu1297     N1307   2.064       .  S
Cu1298     N1300   2.092       .  S
Cu1298     N1306   2.092       .  S
N1299      N1300   1.322       .  A
N1299      C1303   1.344       .  A
N1300      C1301   1.349       .  A
C1301      C1302   1.388       .  A
C1301      H1304   1.082       .  S
C1302      C1303   1.382       .  A
C1303      H1305   1.082       .  S
N1306      N1307   1.324       .  A
N1306      C1310   1.347       .  A
N1307      C1308   1.344       .  A
C1308      C1309   1.380       .  A
C1308      H1311   1.082       .  S
C1309      C1310   1.386       .  A
C1309      C1826   1.480       .  S
C1310      H1312   1.082       .  S
N1313      N1314   1.322       .  A
N1313      C1317   1.348       .  A
N1313     Cu1321   2.083       .  S
N1314      C1315   1.344       .  A
N1314     Cu1320   2.078       .  S
C1315      C1316   1.386       .  A
C1315      H1318   1.082       .  S
C1316      C1317   1.388       .  A
C1316      C1876   1.490       .  S
C1317      H1319   1.082       .  S
Cu1320     N1323   2.078       .  S
Cu1321     N1331   2.083       .  S
Cu1322     N1324   2.082       .  S
Cu1322     N1330   2.083       .  S
N1323      N1324   1.321       .  A
N1323      C1327   1.345       .  A
N1324      C1325   1.346       .  A
C1325      C1326   1.389       .  A
C1325      H1328   1.081       .  S
C1326      C1327   1.388       .  A
C1326      C1799   1.493       .  S
C1327      H1329   1.082       .  S
N1330      N1331   1.324       .  A
N1330      C1334   1.347       .  A
N1331      C1332   1.347       .  A
C1332      C1333   1.383       .  A
C1332      H1335   1.082       .  S
C1333      C1334   1.383       .  A
C1333      C1786   1.481       .  S
C1334      H1336   1.082       .  S
N1337      N1338   1.322       .  A
N1337      C1341   1.346       .  A
N1337     Cu1345   2.071       .  S
N1338      C1339   1.343       .  A
N1338     Cu1344   2.064       .  S
C1339      C1340   1.380       .  A
C1339      H1342   1.082       .  S
C1340      C1341   1.382       .  A
C1340      C1756   1.471       .  S
C1341      H1343   1.082       .  S
Cu1344     N1347   2.064       .  S
Cu1345     N1355   2.072   1_565  S
Cu1346     N1348   2.070       .  S
Cu1346     N1354   2.072   1_565  S
N1347      N1348   1.321       .  A
N1347      C1351   1.342       .  A
N1348      C1349   1.345       .  A
C1349      C1350   1.385       .  A
C1349      H1352   1.082       .  S
C1350      C1351   1.382       .  A
C1350      C1776   1.479       .  S
C1351      H1353   1.082       .  S
N1354      N1355   1.323       .  A
N1354      C1358   1.345       .  A
N1355      C1356   1.344       .  A
C1356      C1357   1.381       .  A
C1356      H1359   1.082       .  S
C1357      C1358   1.381       .  A
C1357      C1766   1.473       .  S
C1358      H1360   1.082       .  S
N1361      N1362   1.323       .  A
N1361      C1365   1.348       .  A
N1361     Cu1369   2.093       .  S
N1362      C1363   1.344       .  A
N1362     Cu1368   2.066       .  S
C1363      C1364   1.381       .  A
C1363      H1366   1.082       .  S
C1364      C1365   1.387       .  A
C1364      C1769   1.482       .  S
C1365      H1367   1.082       .  S
Cu1368     N1371   2.066       .  S
Cu1369     N1379   2.094       .  S
Cu1370     N1372   2.074       .  S
Cu1370     N1378   2.075       .  S
N1371      N1372   1.321       .  A
N1371      C1375   1.344       .  A
N1372      C1373   1.345       .  A
C1373      C1374   1.384       .  A
C1373      H1376   1.082       .  S
C1374      C1375   1.382       .  A
C1375      H1377   1.082       .  S
N1378      N1379   1.324       .  A
N1378      C1382   1.345       .  A
N1379      C1380   1.349       .  A
C1380      C1381   1.387       .  A
C1380      H1383   1.082       .  S
C1381      C1382   1.382       .  A
C1381      C1789   1.484       .  S
C1382      H1384   1.082       .  S
N1385      N1386   1.322       .  A
N1385      C1389   1.343       .  A
N1385     Cu1393   2.067   1_554  S
N1386      C1387   1.343       .  A
N1386     Cu1392   2.068       .  S
C1387      C1388   1.385       .  A
C1387      H1390   1.082       .  S
C1388      C1389   1.383       .  A
C1388      C1736   1.482       .  S
C1389      H1391   1.082       .  S
Cu1392     N1395   2.068       .  S
Cu1393     N1403   2.067       .  S
Cu1394     N1396   2.061   1_556  S
Cu1394     N1402   2.061       .  S
N1395      N1396   1.322       .  A
N1395      C1399   1.344       .  A
N1396      C1397   1.342       .  A
C1397      C1398   1.379       .  A
C1397      H1400   1.082       .  S
C1398      C1399   1.383       .  A
C1398      C1746   1.472       .  S
C1399      H1401   1.082       .  S
N1402      N1403   1.320       .  A
N1402      C1406   1.343       .  A
N1403      C1404   1.344       .  A
C1404      C1405   1.384       .  A
C1404      H1407   1.082       .  S
C1405      C1406   1.382       .  A
C1406      H1408   1.082       .  S
N1409      C1414   1.352       .  A
N1409      C1413   1.350       .  A
N1409      H1441   1.041       .  S
N1410      C1417   1.347       .  A
N1410      C1418   1.348       .  A
N1411      C1416   1.350       .  A
N1411      C1415   1.354       .  A
N1411      H1442   1.037       .  S
N1412      C1419   1.352       .  A
N1412      C1420   1.350       .  A
C1413      C1421   1.387       .  A
C1413      C1429   1.410       .  A
C1414      C1430   1.411       .  A
C1414      C1422   1.386       .  A
C1415      C1423   1.385       .  A
C1415      C1432   1.414       .  A
C1416      C1431   1.416       .  A
C1416      C1424   1.389       .  A
C1417      C1429   1.407       .  A
C1417      C1425   1.386       .  A
C1418      C1432   1.409       .  A
C1418      C1426   1.386       .  A
C1419      C1427   1.385       .  A
C1419      C1430   1.413       .  A
C1420      C1428   1.389       .  A
C1420      C1431   1.416       .  A
C1421      C1422   1.376       .  A
C1421      H1433   1.082       .  S
C1422      H1434   1.082       .  S
C1423      C1424   1.373       .  A
C1423      H1435   1.082       .  S
C1424      H1436   1.082       .  S
C1425      C1426   1.373       .  A
C1425      H1437   1.082       .  S
C1426      H1438   1.082       .  S
C1427      C1428   1.372       .  A
C1427      H1439   1.082       .  S
C1428      H1440   1.082       .  S
C1429      C1749   1.480       .  S
C1430      C1729   1.497       .  S
C1431      C1839   1.484       .  S
C1432      C1716   1.487       .  S
N1443      N1444   1.321       .  A
N1443      C1447   1.346       .  A
N1443     Cu1451   2.071   1_554  S
N1444      C1445   1.343       .  A
N1444     Cu1450   2.065       .  S
C1445      C1446   1.382       .  A
C1445      H1448   1.082       .  S
C1446      C1447   1.384       .  A
C1446      C1706   1.479       .  S
C1447      H1449   1.082   1_554  S
Cu1450     N1453   2.064       .  S
Cu1451     N1461   2.072       .  S
Cu1452     N1454   2.093   1_556  S
Cu1452     N1460   2.094       .  S
N1453      N1454   1.322       .  A
N1453      C1457   1.342       .  A
N1454      C1455   1.349       .  A
C1455      C1456   1.389       .  A
C1455      H1458   1.082   1_554  S
C1456      C1457   1.382       .  A
C1456      C1696   1.485       .  S
C1457      H1459   1.082       .  S
N1460      N1461   1.323       .  A
N1460      C1464   1.350       .  A
N1461      C1462   1.344       .  A
C1462      C1463   1.382       .  A
C1462      H1465   1.082       .  S
C1463      C1464   1.388       .  A
C1464      H1466   1.082       .  S
N1467      C1472   1.351       .  A
N1467      C1471   1.352       .  A
N1467      H1499   1.046       .  S
N1468      C1475   1.351       .  A
N1468      C1476   1.350       .  A
N1469      C1474   1.352       .  A
N1469      C1473   1.349       .  A
N1469      H1500   1.046       .  S
N1470      C1477   1.349       .  A
N1470      C1478   1.351       .  A
C1471      C1479   1.388       .  A
C1471      C1487   1.417       .  A
C1472      C1488   1.415       .  A
C1472      C1480   1.387       .  A
C1473      C1481   1.388       .  A
C1473      C1490   1.413       .  A
C1474      C1489   1.414       .  A
C1474      C1482   1.387       .  A
C1475      C1487   1.413       .  A
C1475      C1483   1.386       .  A
C1476      C1490   1.412       .  A
C1476      C1484   1.386       .  A
C1477      C1485   1.386       .  A
C1477      C1488   1.413       .  A
C1478      C1486   1.386       .  A
C1478      C1489   1.413       .  A
C1479      C1480   1.374       .  A
C1479      H1491   1.082       .  S
C1480      H1492   1.082       .  S
C1481      C1482   1.373       .  A
C1481      H1493   1.082       .  S
C1482      H1494   1.082       .  S
C1483      C1484   1.373       .  A
C1483      H1495   1.082       .  S
C1484      H1496   1.082       .  S
C1485      C1486   1.371       .  A
C1485      H1497   1.082       .  S
C1486      H1498   1.082       .  S
C1487      C1739   1.488       .  S
C1488      C1699   1.486       .  S
C1489      C1819   1.488       .  S
C1490      C1779   1.484       .  S
N1501      C1506   1.352       .  A
N1501      C1505   1.353       .  A
N1501      H1533   1.039       .  S
N1502      C1509   1.352       .  A
N1502      C1510   1.350       .  A
N1503      C1508   1.356       .  A
N1503      C1507   1.354       .  A
N1503      H1534   1.039       .  S
N1504      C1511   1.352       .  A
N1504      C1512   1.352       .  A
C1505      C1513   1.387       .  A
C1505      C1521   1.415       .  A
C1506      C1522   1.414       .  A
C1506      C1514   1.387       .  A
C1507      C1515   1.387       .  A
C1507      C1524   1.420       .  A
C1508      C1523   1.420       .  A
C1508      C1516   1.387       .  A
C1509      C1521   1.413       .  A
C1509      C1517   1.386       .  A
C1510      C1524   1.414       .  A
C1510      C1518   1.387       .  A
C1511      C1519   1.386       .  A
C1511      C1522   1.415       .  A
C1512      C1520   1.387       .  A
C1512      C1523   1.416       .  A
C1513      C1514   1.377       .  A
C1513      H1525   1.082       .  S
C1514      H1526   1.082       .  S
C1515      C1516   1.379       .  A
C1515      H1527   1.082       .  S
C1516      H1528   1.082       .  S
C1517      C1518   1.375       .  A
C1517      H1529   1.082       .  S
C1518      H1530   1.082       .  S
C1519      C1520   1.371       .  A
C1519      H1531   1.082       .  S
C1520      H1532   1.082       .  S
C1521      C1689   1.494       .  S
C1522      C1709   1.492       .  S
C1523      C1679   1.499       .  S
C1524      C1796   1.494       .  S
N1535      N1536   1.319       .  A
N1535      C1539   1.351       .  A
N1535     Cu1543   2.097   1_554  S
N1536      C1537   1.341       .  A
N1536     Cu1542   2.052       .  S
C1537      C1538   1.382       .  A
C1537      H1540   1.082       .  S
C1538      C1539   1.394       .  A
C1538      C1686   1.491       .  S
C1539      H1541   1.082       .  S
Cu1542     N1545   2.053       .  S
Cu1543     N1553   2.100       .  S
Cu1544     N1546   2.090   1_556  S
Cu1544     N1552   2.093       .  S
N1545      N1546   1.320       .  A
N1545      C1549   1.339       .  A
N1546      C1547   1.350       .  A
C1547      C1548   1.393       .  A
C1547      H1550   1.081       .  S
C1548      C1549   1.382       .  A
C1548      C1726   1.490       .  S
C1549      H1551   1.082       .  S
N1552      N1553   1.327       .  A
N1552      C1556   1.348       .  A
N1553      C1554   1.348       .  A
C1554      C1555   1.385       .  A
C1554      H1557   1.082       .  S
C1555      C1556   1.385       .  A
C1556      H1558   1.082       .  S
N1559      N1560   1.325       .  A
N1559      C1563   1.351       .  A
N1559     Cu1567   2.097       .  S
N1560      C1561   1.349       .  A
N1560     Cu1566   2.101       .  S
C1561      C1562   1.386       .  A
C1561      H1564   1.082       .  S
C1562      C1563   1.388       .  A
C1562      C1849   1.493       .  S
C1563      H1565   1.082       .  S
Cu1566     N1569   2.100       .  S
Cu1567     N1577   2.096       .  S
Cu1568     N1570   2.073       .  S
Cu1568     N1576   2.075       .  S
N1569      N1570   1.320       .  A
N1569      C1573   1.350       .  A
N1570      C1571   1.343       .  A
C1571      C1572   1.388       .  A
C1571      H1574   1.081       .  S
C1572      C1573   1.396       .  A
C1572      C1676   1.504       .  S
C1573      H1575   1.081       .  S
N1576      N1577   1.322       .  A
N1576      C1580   1.345       .  A
N1577      C1578   1.349       .  A
C1578      C1579   1.390       .  A
C1578      H1581   1.082       .  S
C1579      C1580   1.385       .  A
C1579      C1666   1.491       .  S
C1580      H1582   1.082       .  S
N1583      N1584   1.323       .  A
N1583      C1587   1.350       .  A
N1583     Cu1591   2.089       .  S
N1584      C1585   1.344       .  A
N1584     Cu1590   2.074       .  S
C1585      C1586   1.382       .  A
C1585      H1588   1.082       .  S
C1586      C1587   1.388       .  A
C1586      C1656   1.485   1_455  S
C1587      H1589   1.082       .  S
Cu1590     N1593   2.073       .  S
Cu1591     N1601   2.090       .  S
Cu1592     N1594   2.082       .  S
Cu1592     N1600   2.083       .  S
N1593      N1594   1.321       .  A
N1593      C1597   1.344       .  A
N1594      C1595   1.347       .  A
C1595      C1596   1.388       .  A
C1595      H1598   1.082       .  S
C1596      C1597   1.385       .  A
C1596      C1719   1.487       .  S
C1597      H1599   1.082       .  S
N1600      N1601   1.324       .  A
N1600      C1604   1.346       .  A
N1601      C1602   1.348       .  A
C1602      C1603   1.386       .  A
C1602      H1605   1.082       .  S
C1603      C1604   1.384       .  A
C1603      C1646   1.486       .  S
C1604      H1606   1.082       .  S
N1607      N1608   1.325       .  A
N1607      C1611   1.347       .  A
N1607     Cu1615   2.087       .  S
N1608      C1609   1.348       .  A
N1608     Cu1614   2.095       .  S
C1609      C1610   1.387       .  A
C1609      H1612   1.082       .  S
C1610      C1611   1.384       .  A
C1610      C1659   1.489       .  S
C1611      H1613   1.082       .  S
Cu1614     N1617   2.093       .  S
Cu1615     N1625   2.086       .  S
Cu1616     N1618   2.067       .  S
Cu1616     N1624   2.067       .  S
N1617      N1618   1.322       .  A
N1617      C1621   1.350       .  A
N1618      C1619   1.343       .  A
C1619      C1620   1.381       .  A
C1619      H1622   1.082       .  S
C1620      C1621   1.389       .  A
C1621      H1623   1.082       .  S
N1624      N1625   1.320       .  A
N1624      C1628   1.345       .  A
N1625      C1626   1.348       .  A
C1626      C1627   1.390       .  A
C1626      H1629   1.082       .  S
C1627      C1628   1.385       .  A
C1627      C1669   1.490       .  S
C1628      H1630   1.082       .  S
O1631     Cu1639   2.019       .  S
O1631      C1641   1.279       .  A
O1632     Cu1639   2.013       .  S
O1632      C1642   1.279       .  A
O1633     Cu1639   2.000       .  S
O1633      C1643   1.276       .  A
O1634     Cu1639   1.998       .  S
O1634      C1644   1.276       .  A
O1635     Cu1640   2.016       .  S
O1635      C1644   1.279       .  A
O1636     Cu1640   2.017       .  S
O1636      C1643   1.279       .  A
O1637     Cu1640   2.005       .  S
O1637      C1642   1.277       .  A
O1638     Cu1640   2.003       .  S
O1638      C1641   1.277       .  A
Cu1639    Cu1640   2.374       .  S
C1641      C1889   1.480       .  S
C1642      C1759   1.476       .  S
C1643      C1649   1.482       .  S
C1644      C2006   1.474       .  S
C1645      C1646   1.413       .  A
C1645      C1650   1.409       .  A
C1645     Br1652   1.931       .  S
C1646      C1647   1.412       .  A
C1647      C1648   1.410       .  A
C1647     Br1654   1.931       .  S
C1648      C1649   1.413       .  A
C1648     Br1653   1.933       .  S
C1649      C1650   1.412       .  A
C1650     Br1651   1.934       .  S
C1655      C1656   1.411       .  A
C1655      C1660   1.410       .  A
C1655     Br1662   1.931   1_655  S
C1656      C1657   1.412       .  A
C1657      C1658   1.412       .  A
C1657     Br1664   1.931       .  S
C1658      C1659   1.415       .  A
C1658     Br1663   1.931       .  S
C1659      C1660   1.412       .  A
C1660     Br1661   1.931       .  S
C1665      C1666   1.414       .  A
C1665      C1670   1.411       .  A
C1665     Br1672   1.932       .  S
C1666      C1667   1.414       .  A
C1667      C1668   1.412       .  A
C1667     Br1674   1.932       .  S
C1668      C1669   1.413       .  A
C1668     Br1673   1.933       .  S
C1669      C1670   1.413       .  A
C1670     Br1671   1.932       .  S
C1675      C1676   1.421       .  A
C1675      C1680   1.411       .  A
C1675     Br1682   1.933       .  S
C1676      C1677   1.420       .  A
C1677      C1678   1.413       .  A
C1677     Br1684   1.930       .  S
C1678      C1679   1.410       .  A
C1678     Br1683   1.933       .  S
C1679      C1680   1.407       .  A
C1680     Br1681   1.931       .  S
C1685      C1686   1.417       .  A
C1685      C1690   1.407       .  A
C1685     Br1692   1.933       .  S
C1686      C1687   1.415       .  A
C1687      C1688   1.412       .  A
C1687     Br1694   1.930       .  S
C1688      C1689   1.410       .  A
C1688     Br1693   1.930       .  S
C1689      C1690   1.408       .  A
C1690     Br1691   1.933       .  S
C1695      C1696   1.414       .  A
C1695      C1700   1.408       .  A
C1695     Br1702   1.929       .  S
C1696      C1697   1.417       .  A
C1697      C1698   1.406       .  A
C1697     Br1704   1.932       .  S
C1698      C1699   1.405       .  A
C1698     Br1703   1.933       .  S
C1699      C1700   1.408       .  A
C1700     Br1701   1.931       .  S
C1705      C1706   1.410       .  A
C1705      C1710   1.407       .  A
C1705     Br1712   1.930       .  S
C1706      C1707   1.411       .  A
C1707      C1708   1.407       .  A
C1707     Br1714   1.932       .  S
C1708      C1709   1.411       .  A
C1708     Br1713   1.931       .  S
C1709      C1710   1.411       .  A
C1710     Br1711   1.930       .  S
C1715      C1716   1.409       .  A
C1715      C1720   1.407       .  A
C1715     Br1722   1.933       .  S
C1716      C1717   1.406       .  A
C1717      C1718   1.408       .  A
C1717     Br1724   1.931       .  S
C1718      C1719   1.415       .  A
C1718     Br1723   1.930       .  S
C1719      C1720   1.416       .  A
C1720     Br1721   1.931       .  S
C1725      C1726   1.416       .  A
C1725      C1730   1.405       .  A
C1725     Br1732   1.933       .  S
C1726      C1727   1.415       .  A
C1727      C1728   1.411       .  A
C1727     Br1734   1.931       .  S
C1728      C1729   1.413       .  A
C1728     Br1733   1.933       .  S
C1729      C1730   1.410       .  A
C1730     Br1731   1.933       .  S
C1735      C1736   1.415       .  A
C1735      C1740   1.406       .  A
C1735     Br1742   1.933       .  S
C1736      C1737   1.415       .  A
C1737      C1738   1.407       .  A
C1737     Br1744   1.932       .  S
C1738      C1739   1.408       .  A
C1738     Br1743   1.930       .  S
C1739      C1740   1.408       .  A
C1740     Br1741   1.931       .  S
C1745      C1746   1.412       .  A
C1745      C1750   1.403       .  A
C1745     Br1752   1.932       .  S
C1746      C1747   1.410       .  A
C1747      C1748   1.405       .  A
C1747     Br1754   1.930       .  S
C1748      C1749   1.408       .  A
C1748     Br1753   1.930       .  S
C1749      C1750   1.408       .  A
C1750     Br1751   1.932       .  S
C1755      C1756   1.407       .  A
C1755      C1760   1.407       .  A
C1755     Br1762   1.929       .  S
C1756      C1757   1.407       .  A
C1757      C1758   1.406       .  A
C1757     Br1764   1.931       .  S
C1758      C1759   1.413       .  A
C1758     Br1763   1.931       .  S
C1759      C1760   1.412       .  A
C1760     Br1761   1.931       .  S
C1765      C1766   1.406       .  A
C1765      C1770   1.408       .  A
C1765     Br1772   1.930       .  S
C1766      C1767   1.408       .  A
C1767      C1768   1.408       .  A
C1767     Br1774   1.932       .  S
C1768      C1769   1.413       .  A
C1768     Br1773   1.930       .  S
C1769      C1770   1.413       .  A
C1770     Br1771   1.930       .  S
C1775      C1776   1.416       .  A
C1775      C1780   1.407       .  A
C1775     Br1782   1.932       .  S
C1776      C1777   1.412       .  A
C1777      C1778   1.404       .  A
C1777     Br1784   1.931       .  S
C1778      C1779   1.408       .  A
C1778     Br1783   1.933       .  S
C1779      C1780   1.407       .  A
C1780     Br1781   1.931       .  S
C1785      C1786   1.409       .  A
C1785      C1790   1.410       .  A
C1785     Br1792   1.929       .  S
C1786      C1787   1.410       .  A
C1787      C1788   1.411       .  A
C1787     Br1794   1.930       .  S
C1788      C1789   1.412       .  A
C1788     Br1793   1.929       .  S
C1789      C1790   1.412       .  A
C1790     Br1791   1.930       .  S
C1795      C1796   1.410       .  A
C1795      C1800   1.410       .  A
C1795     Br1802   1.933       .  S
C1796      C1797   1.408       .  A
C1797      C1798   1.409       .  A
C1797     Br1804   1.932       .  S
C1798      C1799   1.417       .  A
C1798     Br1803   1.932       .  S
C1799      C1800   1.419       .  A
C1800     Br1801   1.932       .  S
C1805      C1806   1.410       .  A
C1805      C1810   1.404       .  A
C1805     Br1812   1.932       .  S
C1806      C1807   1.413       .  A
C1807      C1808   1.408       .  A
C1807     Br1814   1.932       .  S
C1808      C1809   1.410       .  A
C1808     Br1813   1.932       .  S
C1809      C1810   1.409       .  A
C1810     Br1811   1.932       .  S
C1815      C1816   1.418       .  A
C1815      C1820   1.405       .  A
C1815     Br1822   1.932       .  S
C1816      C1817   1.418       .  A
C1817      C1818   1.409       .  A
C1817     Br1824   1.930       .  S
C1818      C1819   1.408       .  A
C1818     Br1823   1.931       .  S
C1819      C1820   1.406       .  A
C1820     Br1821   1.932       .  S
C1825      C1826   1.411       .  A
C1825      C1830   1.409       .  A
C1825     Br1832   1.930       .  S
C1826      C1827   1.412       .  A
C1827      C1828   1.407       .  A
C1827     Br1834   1.930       .  S
C1828      C1829   1.407       .  A
C1828     Br1833   1.930       .  S
C1829      C1830   1.409       .  A
C1830     Br1831   1.930       .  S
C1835      C1836   1.418       .  A
C1835      C1840   1.406       .  A
C1835     Br1842   1.931       .  S
C1836      C1837   1.413       .  A
C1837      C1838   1.403       .  A
C1837     Br1844   1.932       .  S
C1838      C1839   1.409       .  A
C1838     Br1843   1.933       .  S
C1839      C1840   1.407       .  A
C1840     Br1841   1.934       .  S
C1845      C1846   1.413       .  A
C1845      C1850   1.416       .  A
C1845     Br1852   1.929       .  S
C1846      C1847   1.410       .  A
C1847      C1848   1.411       .  A
C1847     Br1854   1.924       .  S
C1848      C1849   1.411       .  A
C1848     Br1853   1.930       .  S
C1849      C1850   1.414       .  A
C1850     Br1851   1.929       .  S
C1855      C1856   1.411       .  A
C1855      C1860   1.410       .  A
C1855     Br1862   1.932       .  S
C1856      C1857   1.409       .  A
C1857      C1858   1.404       .  A
C1857     Br1864   1.932       .  S
C1858      C1859   1.414       .  A
C1858     Br1863   1.934       .  S
C1859      C1860   1.413       .  A
C1860     Br1861   1.931       .  S
C1865      C1866   1.409       .  A
C1865      C1870   1.411       .  A
C1865     Br1872   1.931       .  S
C1866      C1867   1.409       .  A
C1867      C1868   1.406       .  A
C1867     Br1874   1.934       .  S
C1868      C1869   1.413       .  A
C1868     Br1873   1.924       .  S
C1869      C1870   1.416       .  A
C1870     Br1871   1.931       .  S
C1875      C1876   1.414       .  A
C1875      C1880   1.410       .  A
C1875     Br1882   1.933       .  S
C1876      C1877   1.414       .  A
C1877      C1878   1.411       .  A
C1877     Br1884   1.931       .  S
C1878      C1879   1.413       .  A
C1878     Br1883   1.934       .  S
C1879      C1880   1.410       .  A
C1880     Br1881   1.932       .  S
C1885      C1886   1.414       .  A
C1885      C1890   1.410       .  A
C1885     Br1892   1.930       .  S
C1886      C1887   1.413       .  A
C1887      C1888   1.409       .  A
C1887     Br1894   1.931       .  S
C1888      C1889   1.412       .  A
C1888     Br1893   1.933       .  S
C1889      C1890   1.410       .  A
C1890     Br1891   1.932       .  S
C1895      C1896   1.413       .  A
C1895      C1900   1.410       .  A
C1895     Br1902   1.930       .  S
C1896      C1897   1.413       .  A
C1897      C1898   1.410       .  A
C1897     Br1904   1.931       .  S
C1898      C1899   1.409       .  A
C1898     Br1903   1.930       .  S
C1899      C1900   1.411       .  A
C1900     Br1901   1.932       .  S
C1905      C1906   1.406       .  A
C1905      C1910   1.409       .  A
C1905     Br1912   1.937       .  S
C1906      C1907   1.408       .  A
C1907      C1908   1.414       .  A
C1907     Br1914   1.934       .  S
C1908      C1909   1.424       .  A
C1908     Br1913   1.932       .  S
C1909      C1910   1.428       .  A
C1910     Br1911   1.939       .  S
C1915      C1916   1.410       .  A
C1915      C1920   1.408       .  A
C1915     Br1922   1.928       .  S
C1916      C1917   1.410       .  A
C1917      C1918   1.407       .  A
C1917     Br1924   1.929       .  S
C1918      C1919   1.408       .  A
C1918     Br1923   1.931       .  S
C1919      C1920   1.407       .  A
C1920     Br1921   1.930       .  S
C1925      C1926   1.411       .  A
C1925      C1930   1.404       .  A
C1925     Br1932   1.934       .  S
C1926      C1927   1.414       .  A
C1927      C1928   1.408       .  A
C1927     Br1934   1.930       .  S
C1928      C1929   1.408       .  A
C1928     Br1933   1.930       .  S
C1929      C1930   1.413       .  A
C1930     Br1931   1.934       .  S
C1935      C1936   1.409       .  A
C1935      C1940   1.412       .  A
C1935     Br1942   1.929       .  S
C1936      C1937   1.407       .  A
C1937      C1938   1.399       .  A
C1937     Br1944   1.936       .  S
C1938      C1939   1.416       .  A
C1938     Br1943   1.936       .  S
C1939      C1940   1.418       .  A
C1940     Br1941   1.929       .  S
C1945      C1946   1.416       .  A
C1945      C1950   1.407       .  A
C1945     Br1952   1.932       .  S
C1946      C1947   1.416       .  A
C1947      C1948   1.410       .  A
C1947     Br1954   1.931       .  S
C1948      C1949   1.409       .  A
C1948     Br1953   1.929       .  S
C1949      C1950   1.408       .  A
C1950     Br1951   1.932       .  S
C1955      C1956   1.407       .  A
C1955      C1960   1.400       .  A
C1955     Br1962   1.935       .  S
C1956      C1957   1.410       .  A
C1957      C1958   1.410       .  A
C1957     Br1964   1.929       .  S
C1958      C1959   1.415       .  A
C1958     Br1963   1.930       .  S
C1959      C1960   1.414       .  A
C1960     Br1961   1.934       .  S
C1965      C1966   1.418       .  A
C1965      C1970   1.409       .  A
C1965     Br1972   1.933       .  S
C1966      C1967   1.416       .  A
C1967      C1968   1.411       .  A
C1967     Br1974   1.930       .  S
C1968      C1969   1.409       .  A
C1968     Br1973   1.929       .  S
C1969      C1970   1.409       .  A
C1970     Br1971   1.931       .  S
C1975      C1976   1.404       .  A
C1975      C1980   1.402       .  A
C1975     Br1982   1.932       .  S
C1976      C1977   1.410       .  A
C1977      C1978   1.408       .  A
C1977     Br1984   1.931       .  S
C1978      C1979   1.415       .  A
C1978     Br1983   1.931       .  S
C1979      C1980   1.417       .  A
C1980     Br1981   1.933       .  S
C1985      C1986   1.409       .  A
C1985      C1990   1.408       .  A
C1985     Br1992   1.931       .  S
C1986      C1987   1.409       .  A
C1987      C1988   1.404       .  A
C1987     Br1994   1.933       .  S
C1988      C1989   1.415       .  A
C1988     Br1993   1.934       .  S
C1989      C1990   1.412       .  A
C1990     Br1991   1.929       .  S
C1995      C1996   1.410       .  A
C1995      C2000   1.409       .  A
C1995     Br2002   1.931       .  S
C1996      C1997   1.410       .  A
C1997      C1998   1.408       .  A
C1997     Br2004   1.933       .  S
C1998      C1999   1.418       .  A
C1998     Br2003   1.935       .  S
C1999      C2000   1.414       .  A
C2000     Br2001   1.930       .  S
C2005      C2006   1.409       .  A
C2005      C2010   1.407       .  A
C2005     Br2012   1.930       .  S
C2006      C2007   1.412       .  A
C2007      C2008   1.405       .  A
C2007     Br2014   1.932       .  S
C2008      C2009   1.408       .  A
C2008     Br2013   1.932       .  S
C2009      C2010   1.411       .  A
C2010     Br2011   1.932       .  S
C2015      C2016   1.409       .  A
C2015      C2020   1.408       .  A
C2015     Br2022   1.930       .  S
C2016      C2017   1.407       .  A
C2017      C2018   1.406       .  A
C2017     Br2024   1.929       .  S
C2018      C2019   1.410       .  A
C2018     Br2023   1.930       .  S
C2019      C2020   1.411       .  A
C2020     Br2021   1.930       .  S
C2025      C2026   1.413       .  A
C2025      C2030   1.407       .  A
C2025     Br2032   1.930       .  S
C2026      C2027   1.414       .  A
C2027      C2028   1.406       .  A
C2027     Br2034   1.931       .  S
C2028      C2029   1.408       .  A
C2028     Br2033   1.933       .  S
C2029      C2030   1.407       .  A
C2030     Br2031   1.930       .  S
C2035      C2036   1.411       .  A
C2035      C2040   1.409       .  A
C2035     Br2042   1.931       .  S
C2036      C2037   1.411       .  A
C2037      C2038   1.410       .  A
C2037     Br2044   1.931       .  S
C2038      C2039   1.413       .  A
C2038     Br2043   1.932       .  S
C2039      C2040   1.410       .  A
C2040     Br2041   1.926       .  S
C2045      C2046   1.409       .  A
C2045      C2050   1.409       .  A
C2045     Br2052   1.929       .  S
C2046      C2047   1.408       .  A
C2047      C2048   1.408       .  A
C2047     Br2054   1.930       .  S
C2048      C2049   1.411       .  A
C2048     Br2053   1.930       .  S
C2049      C2050   1.410       .  A
C2050     Br2051   1.929       .  S
C2055      C2056   1.416       .  A
C2055      C2060   1.406       .  A
C2055     Br2062   1.931       .  S
C2056      C2057   1.414       .  A
C2057      C2058   1.405       .  A
C2057     Br2064   1.932       .  S
C2058      C2059   1.409       .  A
C2058     Br2063   1.932       .  S
C2059      C2060   1.406       .  A
C2060     Br2061   1.931       .  S
C2065      C2066   1.411       .  A
C2065      C2070   1.411       .  A
C2065     Br2072   1.931       .  S
C2066      C2067   1.409       .  A
C2067      C2068   1.407       .  A
C2067     Br2074   1.932       .  S
C2068      C2069   1.411       .  A
C2068     Br2073   1.924       .  S
C2069      C2070   1.413       .  A
C2070     Br2071   1.930       .  S
C2075      C2076   1.412       .  A
C2075      C2080   1.410       .  A
C2075     Br2082   1.930       .  S
C2076      C2077   1.410       .  A
C2077      C2078   1.408       .  A
C2077     Br2084   1.930       .  S
C2078      C2079   1.409       .  A
C2078     Br2083   1.931       .  S
C2079      C2080   1.409       .  A
C2080     Br2081   1.930       .  S
C2085      C2086   1.413       .  A
C2085      C2090   1.409       .  A
C2085     Br2092   1.931       .  S
C2086      C2087   1.414       .  A
C2087      C2088   1.409       .  A
C2087     Br2094   1.931       .  S
C2088      C2089   1.409       .  A
C2088     Br2093   1.930       .  S
C2089      C2090   1.412       .  A
C2090     Br2091   1.932       .  S
C2095      C2096   1.427       .  A
C2095      C2100   1.414       .  A
C2095     Br2102   1.936       .  S
C2096      C2097   1.423       .  A
C2097      C2098   1.412       .  A
C2097     Br2104   1.930       .  S
C2098      C2099   1.410       .  A
C2098     Br2103   1.936       .  S
C2099      C2100   1.411       .  A
C2100     Br2101   1.935       .  S
C2105      C2106   1.414       .  A
C2105      C2110   1.409       .  A
C2105     Br2112   1.932       .  S
C2106      C2107   1.412       .  A
C2107      C2108   1.407       .  A
C2107     Br2114   1.932       .  S
C2108      C2109   1.409       .  A
C2108     Br2113   1.931       .  S
C2109      C2110   1.409       .  A
C2110     Br2111   1.930       .  S
C2115      C2116   1.418       .  A
C2115      C2120   1.407       .  A
C2115     Br2122   1.931       .  S
C2116      C2117   1.418       .  A
C2117      C2118   1.405       .  A
C2117     Br2124   1.933       .  S
C2118      C2119   1.406       .  A
C2118     Br2123   1.932       .  S
C2119      C2120   1.406       .  A
C2120     Br2121   1.931       .  S
C2125      C2126   1.408       .  A
C2125      C2130   1.408       .  A
C2125     Br2132   1.929       .  S
C2126      C2127   1.409       .  A
C2127      C2128   1.410       .  A
C2127     Br2134   1.930       .  S
C2128      C2129   1.413       .  A
C2128     Br2133   1.931       .  S
C2129      C2130   1.412       .  A
C2130     Br2131   1.932       .  S
C2135      C2136   1.407       .  A
C2135      C2140   1.408       .  A
C2135     Br2142   1.930       .  S
C2136      C2137   1.409       .  A
C2137      C2138   1.408       .  A
C2137     Br2144   1.930       .  S
C2138      C2139   1.411       .  A
C2138     Br2143   1.930       .  S
C2139      C2140   1.411       .  A
C2140     Br2141   1.930       .  S
C2145      C2146   1.413       .  A
C2145      C2150   1.409       .  A
C2145     Br2152   1.931       .  S
C2146      C2147   1.414       .  A
C2147      C2148   1.406       .  A
C2147     Br2154   1.932       .  S
C2148      C2149   1.409       .  A
C2148     Br2153   1.931       .  S
C2149      C2150   1.412       .  A
C2150     Br2151   1.932       .  S
C2155      C2156   1.415       .  A
C2155      C2160   1.405       .  A
C2155     Br2162   1.932       .  S
C2156      C2157   1.413       .  A
C2157      C2158   1.411       .  A
C2157     Br2164   1.929   1_556  S
C2158      C2159   1.409       .  A
C2158     Br2163   1.928       .  S
C2159      C2160   1.407       .  A
C2160     Br2161   1.932       .  S
C2165      C2166   1.414       .  A
C2165      C2170   1.406       .  A
C2165     Br2172   1.932       .  S
C2166      C2167   1.414       .  A
C2167      C2168   1.405       .  A
C2167     Br2174   1.931       .  S
C2168      C2169   1.408       .  A
C2168     Br2173   1.933       .  S
C2169      C2170   1.408       .  A
C2170     Br2171   1.931       .  S
C2175      C2176   1.407       .  A
C2175      C2180   1.409       .  A
C2175     Br2182   1.931       .  S
C2176      C2177   1.408       .  A
C2177      C2178   1.410       .  A
C2177     Br2184   1.931       .  S
C2178      C2179   1.417       .  A
C2178     Br2183   1.931       .  S
C2179      C2180   1.418       .  A
C2180     Br2181   1.933       .  S
C2185      C2186   1.408       .  A
C2185      C2190   1.409       .  A
C2185     Br2192   1.929       .  S
C2186      C2187   1.409       .  A
C2187      C2188   1.409       .  A
C2187     Br2194   1.930       .  S
C2188      C2189   1.411       .  A
C2188     Br2193   1.930       .  S
C2189      C2190   1.411       .  A
C2190     Br2191   1.929       .  S
C2195      C2196   1.411       .  A
C2195      C2200   1.410       .  A
C2195     Br2202   1.933       .  S
C2196      C2197   1.409       .  A
C2197      C2198   1.411       .  A
C2197     Br2204   1.931       .  S
C2198      C2199   1.416       .  A
C2198     Br2203   1.930       .  S
C2199      C2200   1.416       .  A
C2200     Br2201   1.932       .  S
C2205      C2206   1.410       .  A
C2205      C2210   1.405       .  A
C2205     Br2212   1.931       .  S
C2206      C2207   1.412       .  A
C2207      C2208   1.408       .  A
C2207     Br2214   1.929       .  S
C2208      C2209   1.406       .  A
C2208     Br2213   1.929       .  S
C2209      C2210   1.408       .  A
C2210     Br2211   1.931       .  S
C2215      C2216   1.419       .  A
C2215      C2220   1.408       .  A
C2215     Br2222   1.933       .  S
C2216      C2217   1.416       .  A
C2217      C2218   1.408       .  A
C2217     Br2224   1.931       .  S
C2218      C2219   1.407       .  A
C2218     Br2223   1.931       .  S
C2219      C2220   1.406       .  A
C2220     Br2221   1.931       .  S
C2225      C2226   1.412       .  A
C2225      C2230   1.407       .  A
C2225     Br2232   1.930       .  S
C2226      C2227   1.409       .  A
C2227      C2228   1.404       .  A
C2227     Br2234   1.930       .  S
C2228      C2229   1.410       .  A
C2228     Br2233   1.930       .  S
C2229      C2230   1.411       .  A
C2230     Br2231   1.932       .  S
C2235      C2236   1.412       .  A
C2235      C2240   1.407       .  A
C2235     Br2242   1.932       .  S
C2236      C2237   1.411       .  A
C2237      C2238   1.408       .  A
C2237     Br2244   1.930       .  S
C2238      C2239   1.410       .  A
C2238     Br2243   1.930       .  S
C2239      C2240   1.411       .  A
C2240     Br2241   1.932       .  S
C2245      C2246   1.407       .  A
C2245      C2250   1.406       .  A
C2245     Br2252   1.932       .  S
C2246      C2247   1.407       .  A
C2247      C2248   1.407       .  A
C2247     Br2254   1.933       .  S
C2248      C2249   1.417       .  A
C2248     Br2253   1.932       .  S
C2249      C2250   1.416       .  A
C2250     Br2251   1.932       .  S
C2255      C2256   1.407       .  A
C2255      C2260   1.407       .  A
C2255     Br2262   1.931       .  S
C2256      C2257   1.409       .  A
C2257      C2258   1.411       .  A
C2257     Br2264   1.931       .  S
C2258      C2259   1.414       .  A
C2258     Br2263   1.929       .  S
C2259      C2260   1.417       .  A
C2260     Br2261   1.933       .  S
C2265      C2266   1.409       .  A
C2265      C2270   1.410       .  A
C2265     Br2272   1.931       .  S
C2266      C2267   1.407       .  A
C2267      C2268   1.410       .  A
C2267     Br2274   1.929       .  S
C2268      C2269   1.412       .  A
C2268     Br2273   1.929       .  S
C2269      C2270   1.413       .  A
C2270     Br2271   1.929       .  S
C2275      C2276   1.413       .  A
C2275      C2280   1.408       .  A
C2275     Br2282   1.931       .  S
C2276      C2277   1.413       .  A
C2277      C2278   1.408       .  A
C2277     Br2284   1.931       .  S
C2278      C2279   1.409       .  A
C2278     Br2283   1.930       .  S
C2279      C2280   1.411       .  A
C2280     Br2281   1.931       .  S
C2285      C2286   1.407       .  A
C2285      C2290   1.411       .  A
C2285     Br2292   1.930       .  S
C2286      C2287   1.409       .  A
C2287      C2288   1.411       .  A
C2287     Br2294   1.931       .  S
C2288      C2289   1.416       .  A
C2288     Br2293   1.931       .  S
C2289      C2290   1.416       .  A
C2290     Br2291   1.931       .  S
C2295      C2296   1.418       .  A
C2295      C2300   1.413       .  A
C2295     Br2302   1.931       .  S
C2296      C2297   1.419       .  A
C2297      C2298   1.410       .  A
C2297     Br2304   1.933       .  S
C2298      C2299   1.410       .  A
C2298     Br2303   1.933       .  S
C2299      C2300   1.411       .  A
C2300     Br2301   1.931       .  S
C2305      C2306   1.411       .  A
C2305      C2310   1.408       .  A
C2305     Br2312   1.932       .  S
C2306      C2307   1.409       .  A
C2307      C2308   1.409       .  A
C2307     Br2314   1.930       .  S
C2308      C2309   1.413       .  A
C2308     Br2313   1.932       .  S
C2309      C2310   1.412       .  A
C2310     Br2311   1.932       .  S
C2315      C2316   1.410       .  A
C2315      C2320   1.411       .  A
C2315     Br2322   1.930       .  S
C2316      C2317   1.408       .  A
C2317      C2318   1.412       .  A
C2317     Br2324   1.930       .  S
C2318      C2319   1.414       .  A
C2318     Br2323   1.930       .  S
C2319      C2320   1.414       .  A
C2320     Br2321   1.931       .  S
C2325      C2326   1.427       .  A
C2325      C2330   1.406       .  A
C2325     Br2332   1.938       .  S
C2326      C2327   1.425       .  A
C2327      C2328   1.409       .  A
C2327     Br2334   1.934       .  S
C2328      C2329   1.404       .  A
C2328     Br2333   1.935       .  S
C2329      C2330   1.404       .  A
C2330     Br2331   1.937       .  S
C2335      C2336   1.414       .  A
C2335      C2340   1.409       .  A
C2335     Br2342   1.928       .  S
C2336      C2337   1.415       .  A
C2337      C2338   1.407       .  A
C2337     Br2344   1.934       .  S
C2338      C2339   1.408       .  A
C2338     Br2343   1.932       .  S
C2339      C2340   1.407       .  A
C2340     Br2341   1.930       .  S
C2345      C2346   1.411       .  A
C2345      C2350   1.410       .  A
C2345     Br2352   1.933       .  S
C2346      C2347   1.409       .  A
C2347      C2348   1.411       .  A
C2347     Br2354   1.931       .  S
C2348      C2349   1.414       .  A
C2348     Br2353   1.931       .  S
C2349      C2350   1.415       .  A
C2350     Br2351   1.932       .  S
C2355      C2356   1.413       .  A
C2355      C2360   1.407       .  A
C2355     Br2362   1.934       .  S
C2356      C2357   1.415       .  A
C2357      C2358   1.408       .  A
C2357     Br2364   1.934       .  S
C2358      C2359   1.409       .  A
C2358     Br2363   1.931       .  S
C2359      C2360   1.411       .  A
C2360     Br2361   1.932       .  S
C2365      C2366   1.413       .  A
C2365      C2370   1.408       .  A
C2365     Br2372   1.931       .  S
C2366      C2367   1.414       .  A
C2367      C2368   1.408       .  A
C2367     Br2374   1.931       .  S
C2368      C2369   1.410       .  A
C2368     Br2373   1.933       .  S
C2369      C2370   1.410       .  A
C2370     Br2371   1.933       .  S
C2375      C2376   1.412       .  A
C2375      C2380   1.414       .  A
C2375     Br2382   1.929       .  S
C2376      C2377   1.411       .  A
C2377      C2378   1.411       .  A
C2377     Br2384   1.931       .  S
C2378      C2379   1.413       .  A
C2378     Br2383   1.931       .  S
C2379      C2380   1.413       .  A
C2380     Br2381   1.929       .  S
C2385      C2386   1.410       .  A
C2385      C2390   1.408       .  A
C2385     Br2392   1.931       .  S
C2386      C2387   1.408       .  A
C2387      C2388   1.405       .  A
C2387     Br2394   1.931       .  S
C2388      C2389   1.408       .  A
C2388     Br2393   1.926       .  S
C2389      C2390   1.412       .  A
C2390     Br2391   1.931       .  S
C2395      C2396   1.408       .  A
C2395      C2400   1.409       .  A
C2395     Br2402   1.929       .  S
C2396      C2397   1.410       .  A
C2397      C2398   1.410       .  A
C2397     Br2404   1.930       .  S
C2398      C2399   1.410       .  A
C2398     Br2403   1.929       .  S
C2399      C2400   1.411       .  A
C2400     Br2401   1.929       .  S
C2405      C2406   1.416       .  A
C2405      C2410   1.408       .  A
C2405     Br2412   1.931       .  S
C2406      C2407   1.417       .  A
C2407      C2408   1.406       .  A
C2407     Br2414   1.931       .  S
C2408      C2409   1.406       .  A
C2408     Br2413   1.932       .  S
C2409      C2410   1.407       .  A
C2410     Br2411   1.931       .  S
C2415      C2416   1.410       .  A
C2415      C2420   1.409       .  A
C2415     Br2422   1.928       .  S
C2416      C2417   1.408       .  A
C2417      C2418   1.407       .  A
C2417     Br2424   1.929       .  S
C2418      C2419   1.418       .  A
C2418     Br2423   1.932       .  S
C2419      C2420   1.420       .  A
C2420     Br2421   1.934       .  S
C2425      C2426   1.409       .  A
C2425      C2430   1.410       .  A
C2425     Br2432   1.932       .  S
C2426      C2427   1.407       .  A
C2427      C2428   1.409       .  A
C2427     Br2434   1.930       .  S
C2428      C2429   1.417       .  A
C2428     Br2433   1.931       .  S
C2429      C2430   1.420       .  A
C2430     Br2431   1.932       .  S
C2435      C2436   1.408       .  A
C2435      C2440   1.408       .  A
C2435     Br2442   1.932       .  S
C2436      C2437   1.405       .  A
C2437      C2438   1.403       .  A
C2437     Br2444   1.934       .  S
C2438      C2439   1.417       .  A
C2438     Br2443   1.934       .  S
C2439      C2440   1.417       .  A
C2440     Br2441   1.930       .  S
C2445      C2446   1.415       .  A
C2445      C2450   1.404       .  A
C2445     Br2452   1.933       .  S
C2446      C2447   1.414       .  A
C2447      C2448   1.410       .  A
C2447     Br2454   1.931       .  S
C2448      C2449   1.412       .  A
C2448     Br2453   1.931       .  S
C2449      C2450   1.408       .  A
C2450     Br2451   1.932       .  S
C2455      C2456   1.409       .  A
C2455      C2460   1.409       .  A
C2455     Br2462   1.929       .  S
C2456      C2457   1.411       .  A
C2457      C2458   1.408       .  A
C2457     Br2464   1.932       .  S
C2458      C2459   1.414       .  A
C2458     Br2463   1.930       .  S
C2459      C2460   1.414       .  A
C2460     Br2461   1.931       .  S
C2465      C2466   1.418       .  A
C2465      C2470   1.411       .  A
C2465     Br2472   1.932       .  S
C2466      C2467   1.419       .  A
C2467      C2468   1.407       .  A
C2467     Br2474   1.933       .  S
C2468      C2469   1.407       .  A
C2468     Br2473   1.932       .  S
C2469      C2470   1.409       .  A
C2470     Br2471   1.929       .  S
C2475      C2476   1.410       .  A
C2475      C2480   1.410       .  A
C2475     Br2482   1.931       .  S
C2476      C2477   1.411       .  A
C2477      C2478   1.410       .  A
C2477     Br2484   1.929       .  S
C2478      C2479   1.412       .  A
C2478     Br2483   1.931       .  S
C2479      C2480   1.415       .  A
C2480     Br2481   1.932       .  S
C2485      C2486   1.410       .  A
C2485      C2490   1.412       .  A
C2485     Br2492   1.929       .  S
C2486      C2487   1.410       .  A
C2487      C2488   1.413       .  A
C2487     Br2494   1.929       .  S
C2488      C2489   1.413       .  A
C2488     Br2493   1.929       .  S
C2489      C2490   1.413       .  A
C2490     Br2491   1.931       .  S
C2495      C2496   1.413       .  A
C2495      C2500   1.410       .  A
C2495     Br2502   1.929       .  S
C2496      C2497   1.414       .  A
C2497      C2498   1.410       .  A
C2497     Br2504   1.930       .  S
C2498      C2499   1.408       .  A
C2498     Br2503   1.930       .  S
C2499      C2500   1.408       .  A
C2500     Br2501   1.929       .  S
C2505      C2506   1.422       .  A
C2505      C2510   1.412       .  A
C2505     Br2512   1.932       .  S
C2506      C2507   1.420       .  A
C2507      C2508   1.411       .  A
C2507     Br2514   1.931       .  S
C2508      C2509   1.407       .  A
C2508     Br2513   1.931       .  S
C2509      C2510   1.407       .  A
C2510     Br2511   1.931       .  S
C2515      C2516   1.412       .  A
C2515      C2520   1.409       .  A
C2515     Br2522   1.930       .  S
C2516      C2517   1.415       .  A
C2517      C2518   1.410       .  A
C2517     Br2524   1.933       .  S
C2518      C2519   1.410       .  A
C2518     Br2523   1.929       .  S
C2519      C2520   1.410       .  A
C2520     Br2521   1.931       .  S
C2525      C2526   1.413       .  A
C2525      C2530   1.411       .  A
C2525     Br2532   1.929       .  S
C2526      C2527   1.412       .  A
C2527      C2528   1.411       .  A
C2527     Br2534   1.929       .  S
C2528      C2529   1.408       .  A
C2528     Br2533   1.929       .  S
C2529      C2530   1.409       .  A
C2530     Br2531   1.930       .  S
C2535      C2536   1.409       .  A
C2535      C2540   1.410       .  A
C2535     Br2542   1.930       .  S
C2536      C2537   1.410       .  A
C2537      C2538   1.407       .  A
C2537     Br2544   1.932       .  S
C2538      C2539   1.415       .  A
C2538     Br2543   1.933       .  S
C2539      C2540   1.415       .  A
C2540     Br2541   1.930       .  S
C2545      C2546   1.408       .  A
C2545      C2550   1.405       .  A
C2545     Br2552   1.932       .  S
C2546      C2547   1.410       .  A
C2547      C2548   1.408       .  A
C2547     Br2554   1.931       .  S
C2548      C2549   1.411       .  A
C2548     Br2553   1.931       .  S
C2549      C2550   1.413       .  A
C2550     Br2551   1.934       .  S
C2555      C2556   1.411       .  A
C2555      C2560   1.408       .  A
C2555     Br2562   1.931       .  S
C2556      C2557   1.408       .  A
C2557      C2558   1.406       .  A
C2557     Br2564   1.930       .  S
C2558      C2559   1.409       .  A
C2558     Br2563   1.930       .  S
C2559      C2560   1.410       .  A
C2560     Br2561   1.930       .  S
C2565      C2566   1.417       .  A
C2565      C2570   1.409       .  A
C2565     Br2572   1.931       .  S
C2566      C2567   1.417       .  A
C2567      C2568   1.409       .  A
C2567     Br2574   1.932       .  S
C2568      C2569   1.410       .  A
C2568     Br2573   1.933       .  S
C2569      C2570   1.407       .  A
C2570     Br2571   1.931       .  S
C2575      C2576   1.413       .  A
C2575      C2580   1.410       .  A
C2575     Br2582   1.932       .  S
C2576      C2577   1.413       .  A
C2577      C2578   1.409       .  A
C2577     Br2584   1.931       .  S
C2578      C2579   1.411       .  A
C2578     Br2583   1.933       .  S
C2579      C2580   1.412       .  A
C2580     Br2581   1.932       .  S
C2585      C2586   1.413       .  A
C2585      C2590   1.408       .  A
C2585     Br2592   1.931       .  S
C2586      C2587   1.414       .  A
C2587      C2588   1.411       .  A
C2587     Br2594   1.929       .  S
C2588      C2589   1.408       .  A
C2588     Br2593   1.929       .  S
C2589      C2590   1.408       .  A
C2590     Br2591   1.930       .  S
C2595      C2596   1.416       .  A
C2595      C2600   1.405       .  A
C2595     Br2602   1.933       .  S
C2596      C2597   1.416       .  A
C2597      C2598   1.410       .  A
C2597     Br2604   1.931       .  S
C2598      C2599   1.411       .  A
C2598     Br2603   1.933       .  S
C2599      C2600   1.410       .  A
C2600     Br2601   1.935       .  S
