geometry optimzed in LAMMPS
_audit_creation_date              2020-11-30 
_audit_creation_method            'lammps2cif' 
_symmetry_space_group_name_H-M    'P1' 
_symmetry_Int_Tables_number       1 
_symmetry_cell_setting            triclinic 
loop_ 
_symmetry_equiv_pos_as_xyz 
  x,y,z 
_cell_length_a                    51.10705286 
_cell_length_b                    50.8709705682043 
_cell_length_c                    50.89993796455931 
_cell_angle_alpha                 90.16284426652533 
_cell_angle_beta                  90.04650808162225 
_cell_angle_gamma                 89.83963855233009 
loop_ 
_atom_site_label 
_atom_site_type_symbol 
_atom_site_fract_x 
_atom_site_fract_y 
_atom_site_fract_z 
_atom_site_charge 
C1          C  0.02566235  0.98706969  0.99791269     0.02500
C2          C  0.01807583  0.00874761  0.98179497     0.02500
C3          C  0.99558193  0.02407571  0.98865566     0.02500
C4          C  0.97924352  0.01597083  0.00976010     0.02500
C5          C  0.98658601  0.99416741  0.02565812     0.02500
C6          C  0.00906350  0.97900136  0.01886324     0.02500
O7          O  0.02397584  0.19723645  0.85950340    -0.80000
O8          O  0.97322352  0.30395580  0.86730741    -0.80000
O9          O  0.95592048  0.25064113  0.83624434    -0.80000
O10         O  0.04018256  0.25383000  0.83521708    -0.79900
O11         O  0.93828851  0.26755743  0.87142921    -0.80100
O12         O  0.05932997  0.23317184  0.86738849    -0.80000
O13         O  0.99737478  0.28847365  0.83462902    -0.80000
O14         O  0.99844788  0.21638960  0.83007258    -0.80000
C15         C  0.01655210  0.20055035  0.83580597     1.09700
C16         C  0.98110414  0.30496875  0.84360719     1.09600
C17         C  0.93660524  0.26184238  0.84718377     1.09700
C18         C  0.06007328  0.24204089  0.84412012     1.09600
O19         O  0.03632450  0.24796511  0.91746656    -0.80000
O20         O  0.96294659  0.24652148  0.91857027    -0.80000
O21         O  0.98213034  0.18902071  0.87784116    -0.80000
O22         O  0.01602767  0.30957589  0.88397443    -0.80000
O23         O  0.99756776  0.29030238  0.91740619    -0.80000
O24         O  0.00111168  0.20636858  0.91204025    -0.80000
O25         O  0.05264505  0.27482069  0.88761896    -0.79900
O26         O  0.94564928  0.22383100  0.88577600    -0.80000
Co27       Co  0.02737566  0.22343107  0.88904401     1.51500
Co28       Co  0.97092875  0.27458507  0.89327189     1.51700
Co29       Co  0.97300300  0.22269564  0.85788706     1.51600
Co30       Co  0.02420217  0.27875571  0.86044950     1.51500
O31         O  0.99888365  0.24992685  0.87522933    -1.41900
C32         C  0.05143203  0.26655360  0.91120843     1.09600
C33         C  0.94610909  0.23049629  0.90986189     1.09700
C34         C  0.98917790  0.18722333  0.90175694     1.09700
C35         C  0.00901669  0.31017385  0.90784012     1.09600
O36         O  0.86257983  0.02485832  0.19816637    -0.80000
O37         O  0.85779380  0.97368328  0.30586002    -0.80000
O38         O  0.83009373  0.95896606  0.24888492    -0.80000
O39         O  0.83355739  0.04056097  0.25225448    -0.79900
O40         O  0.86246350  0.93916659  0.26898662    -0.80100
O41         O  0.86822376  0.05873191  0.23531247    -0.80000
O42         O  0.82787199  0.99873133  0.28719415    -0.80000
O43         O  0.82928896  0.00174486  0.21322168    -0.80000
C44         C  0.83868432  0.01812396  0.19714772     1.09700
C45         C  0.83469285  0.98315882  0.30521629     1.09600
C46         C  0.83902690  0.93913215  0.26100455     1.09700
C47         C  0.84409141  0.05991977  0.24104774     1.09600
O48         O  0.91530486  0.03221820  0.25378505    -0.80000
O49         O  0.91204393  0.95975345  0.25180085    -0.80000
O50         O  0.87755566  0.98130612  0.19070452    -0.80000
O51         O  0.87631504  0.01547515  0.31261711    -0.80000
O52         O  0.90975241  0.99520929  0.29509420    -0.80000
O53         O  0.91149617  0.99819639  0.21041193    -0.80000
O54         O  0.88442631  0.05105180  0.27791036    -0.79900
O55         O  0.88023338  0.94490344  0.22629377    -0.80000
Co56       Co  0.88906095  0.02578594  0.22681956     1.51500
Co57       Co  0.88550881  0.96975790  0.27798288     1.51700
Co58       Co  0.85459386  0.97409802  0.22266158     1.51600
Co59       Co  0.85561329  0.02425087  0.27966160     1.51500
O60         O  0.87126351  0.99836117  0.25174927    -1.41900
C61         C  0.90837582  0.04823565  0.27142985     1.09600
C62         C  0.90330888  0.94309883  0.23549912     1.09700
C63         C  0.90155329  0.98768794  0.19013521     1.09700
C64         C  0.89974252  0.00739964  0.31440113     1.09600
C65         C  0.97152407  0.99068476  0.49694594     0.02500
C66         C  0.97854068  0.01252295  0.48111344     0.02500
C67         C  0.00043955  0.02818050  0.48810552     0.02500
C68         C  0.01654166  0.02082214  0.50962946     0.02500
C69         C  0.00923068  0.99924762  0.52570311     0.02500
C70         C  0.98784014  0.98303331  0.51819402     0.02500
O71         O  0.02293680  0.80710927  0.63489481    -0.80000
O72         O  0.97520487  0.69887266  0.63215239    -0.80000
O73         O  0.95636127  0.75306000  0.66002671    -0.80000
O74         O  0.03947236  0.75208864  0.66477921    -0.79900
O75         O  0.93950509  0.73440463  0.62534675    -0.80100
O76         O  0.05895758  0.77154381  0.63199229    -0.80000
O77         O  0.99731569  0.71571609  0.66555843    -0.80000
O78         O  0.99766164  0.78951382  0.66532057    -0.80000
C79         C  0.01327925  0.80727567  0.65792483     1.09700
C80         C  0.98119328  0.69924755  0.65635882     1.09600
C81         C  0.93722647  0.74168288  0.64915497     1.09700
C82         C  0.05926922  0.76405019  0.65577700     1.09600
O83         O  0.03922100  0.75240601  0.58189737    -0.80000
O84         O  0.96537377  0.75270434  0.57784260    -0.80000
O85         O  0.98127425  0.81206872  0.61567029    -0.80000
O86         O  0.01889425  0.69265306  0.61773242    -0.80000
O87         O  0.00114549  0.71078776  0.58312280    -0.80000
O88         O  0.00256088  0.79447453  0.58278974    -0.80000
O89         O  0.05423539  0.72848543  0.61488481    -0.79900
O90         O  0.94610823  0.77690874  0.60839714    -0.80000
Co91       Co  0.02810225  0.77882970  0.60796261     1.51500
Co92       Co  0.97300534  0.72662734  0.60499214     1.51700
Co93       Co  0.97273829  0.78005262  0.63735682     1.51600
Co94       Co  0.02492508  0.72506379  0.64037950     1.51500
O95         O  0.99975947  0.75263887  0.62259041    -1.41900
C96         C  0.05549473  0.73606967  0.59114978     1.09600
C97         C  0.94925937  0.77040952  0.58442388     1.09700
C98         C  0.99015127  0.81378805  0.59247142     1.09700
C99         C  0.01281031  0.69142884  0.59354978     1.09600
O100        O  0.20009780  0.85972456  0.02828555    -0.80000
O101        O  0.30454693  0.86365216  0.97233723    -0.80000
O102        O  0.24949660  0.83323438  0.95905105    -0.80000
O103        O  0.25704678  0.83228047  0.04159673    -0.79900
O104        O  0.26675297  0.86726989  0.93959566    -0.80100
O105        O  0.23774526  0.86525131  0.06145191    -0.80000
O106        O  0.28972529  0.83093454  0.99656163    -0.80000
O107        O  0.21728295  0.82911052  0.00268806    -0.80000
C108        C  0.20209555  0.83583438  0.02096249     1.09700
C109        C  0.30571310  0.83988078  0.97991640     1.09600
C110        C  0.26043480  0.84317564  0.93917479     1.09700
C111        C  0.24560843  0.84152271  0.06175106     1.09600
O112        O  0.25376871  0.91502832  0.03792893    -0.80000
O113        O  0.24773362  0.91567894  0.96338458    -0.80000
O114        O  0.19100616  0.87745851  0.98639075    -0.80000
O115        O  0.31246982  0.88018196  0.01485239    -0.80000
O116        O  0.29256210  0.91391133  0.99712263    -0.80000
O117        O  0.20972658  0.91149027  0.00450801    -0.80000
O118        O  0.27951018  0.88332568  0.05265733    -0.79900
O119        O  0.22379533  0.88288499  0.94814701    -0.80000
Co120      Co  0.22756059  0.88785519  0.03007353     1.51500
Co121      Co  0.27553372  0.88992356  0.97113228     1.51700
Co122      Co  0.22315984  0.85602411  0.97632809     1.51600
Co123      Co  0.28169632  0.85684513  0.02406422     1.51500
O124        O  0.25200388  0.87279631  0.00040805    -1.41900
C125        C  0.27145506  0.90696040  0.05333439     1.09600
C126        C  0.23135222  0.90660046  0.94705068     1.09700
C127        C  0.18991380  0.90141784  0.99347871     1.09700
C128        C  0.31272072  0.90417096  0.00805839     1.09600
O129        O  0.99968387  0.78375519  0.17231401    -0.80000
O130        O  0.00377442  0.71222433  0.16677297    -0.80000
O131        O  0.93980341  0.76635282  0.13536725    -0.80000
O132        O  0.06169467  0.73609309  0.12994892    -0.79900
O133        O  0.95976849  0.74550067  0.16706525    -0.80100
O134        O  0.04332659  0.75142463  0.16548517    -0.80000
O135        O  0.02811952  0.69865754  0.13339296    -0.80000
O136        O  0.97350529  0.80310883  0.14353939    -0.80000
C137        C  0.98139211  0.79953532  0.16703572     1.09700
C138        C  0.02104322  0.69713110  0.15725940     1.09600
C139        C  0.93970248  0.75741864  0.15862057     1.09700
C140        C  0.06307053  0.74135484  0.15430706     1.09600
O141        O  0.05240860  0.77962840  0.11656138    -0.80000
O142        O  0.94779870  0.72520356  0.11483820    -0.80000
O143        O  0.99682622  0.79542749  0.09075566    -0.80000
O144        O  0.00292851  0.71202511  0.08418536    -0.80000
O145        O  0.98529594  0.69106302  0.11716558    -0.80000
O146        O  0.01502579  0.81251177  0.12552493    -0.80000
O147        O  0.03627413  0.75685168  0.08321171    -0.79900
O148        O  0.96292646  0.75270016  0.08491941    -0.80000
Co149      Co  0.02529903  0.77905472  0.14456877     1.51500
Co150      Co  0.97644623  0.72144411  0.14139047     1.51700
Co151      Co  0.97113655  0.77724474  0.11354101     1.51600
Co152      Co  0.02923906  0.72827719  0.10811919     1.51500
O153        O  0.00049434  0.75142944  0.12678561    -1.41900
C154        C  0.05246891  0.77327506  0.09238884     1.09600
C155        C  0.94853285  0.73359081  0.09130696     1.09700
C156        C  0.00844004  0.81447807  0.10156855     1.09700
C157        C  0.99198511  0.69155837  0.09318951     1.09600
C158        C  0.23466583  0.72654988  0.25932882     0.02500
C159        C  0.22760503  0.74232868  0.23735664     0.02500
C160        C  0.24406883  0.76341860  0.22942437     0.02500
C161        C  0.26571439  0.77091572  0.24541761     0.02500
C162        C  0.27272143  0.75532555  0.26758765     0.02500
C163        C  0.25679745  0.73357891  0.27484708     0.02500
O164        O  0.21615908  0.66843270  0.50018148    -0.80000
O165        O  0.28883863  0.66569212  0.49658174    -0.80000
O166        O  0.23523877  0.63352179  0.56083132    -0.80000
O167        O  0.26635009  0.62607262  0.43965720    -0.79900
O168        O  0.25509273  0.66578762  0.54081635    -0.80100
O169        O  0.24996753  0.66127764  0.45784472    -0.80000
O170        O  0.30393457  0.63221743  0.47315807    -0.80000
O171        O  0.19860153  0.63902959  0.52670284    -0.80000
C172        C  0.20112826  0.66268564  0.51896955     1.09700
C173        C  0.30477212  0.65628821  0.47997609     1.09600
C174        C  0.24336337  0.65703838  0.56089366     1.09700
C175        C  0.26077351  0.65033671  0.43836754     1.09600
O176        O  0.22362872  0.61063255  0.44851747    -0.80000
O177        O  0.27710527  0.61477441  0.55382836    -0.80000
O178        O  0.20812677  0.58643070  0.50481469    -0.80000
O179        O  0.29188192  0.58301679  0.50007521    -0.80000
O180        O  0.31129492  0.61741653  0.51660021    -0.80000
O181        O  0.18986773  0.61989897  0.48530273    -0.80000
O182        O  0.24801602  0.57949775  0.46666416    -0.79900
O183        O  0.25132770  0.58324798  0.53881768    -0.80000
Co184      Co  0.22268971  0.63990814  0.47510352     1.51500
Co185      Co  0.28014847  0.64064856  0.52458119     1.51700
Co186      Co  0.22559729  0.61046276  0.52988779     1.51600
Co187      Co  0.27521085  0.60564993  0.47271387     1.51500
O188        O  0.25092565  0.62417378  0.50062125    -1.41900
C189        C  0.23007394  0.58654957  0.45110839     1.09600
C190        C  0.26805626  0.59153718  0.55512550     1.09700
C191        C  0.18846759  0.59638823  0.49345112     1.09700
C192        C  0.31184016  0.59318067  0.51078107     1.09600
C193        C  0.26426671  0.72656550  0.74358565     0.02500
C194        C  0.24183005  0.73345554  0.72854830     0.02500
C195        C  0.22464046  0.75362680  0.73728084     0.02500
C196        C  0.23182732  0.76929344  0.75924222     0.02500
C197        C  0.25450056  0.76262145  0.77409045     0.02500
C198        C  0.27146048  0.74212110  0.76560966     0.02500
O199        O  0.44895613  0.77486872  0.88833199    -0.80000
O200        O  0.55296585  0.71990312  0.88075287    -0.80000
O201        O  0.49927388  0.70433279  0.90761558    -0.80000
O202        O  0.50486998  0.78758894  0.91589271    -0.79900
O203        O  0.51548675  0.68704848  0.87206051    -0.80100
O204        O  0.48604713  0.80896317  0.88383705    -0.80000
O205        O  0.53824479  0.74258680  0.91492776    -0.80000
O206        O  0.46604434  0.74641904  0.91639207    -0.80000
C207        C  0.45143148  0.76585373  0.91154462     1.09700
C208        C  0.55365106  0.72563630  0.90510421     1.09600
C209        C  0.50959179  0.68494204  0.89618293     1.09700
C210        C  0.49389624  0.80831605  0.90749502     1.09600
O211        O  0.50155002  0.78808347  0.83300494    -0.80000
O212        O  0.49860304  0.71711601  0.82640513    -0.80000
O213        O  0.43968105  0.73429298  0.86755301    -0.80000
O214        O  0.56156126  0.76372780  0.86806425    -0.80000
O215        O  0.54251811  0.74918443  0.83260469    -0.80000
O216        O  0.45775457  0.75480794  0.83477314    -0.80000
O217        O  0.52771519  0.80115515  0.86523840    -0.79900
O218        O  0.47334557  0.69775910  0.85589991    -0.80000
Co219      Co  0.47580810  0.77874051  0.85985306     1.51500
Co220      Co  0.52507916  0.72113974  0.85348358     1.51700
Co221      Co  0.47237388  0.72272810  0.88680259     1.51600
Co222      Co  0.53002598  0.77146329  0.89063797     1.51500
O223        O  0.50082373  0.74860093  0.87268787    -1.41900
C224        C  0.51945796  0.80284272  0.84168352     1.09600
C225        C  0.48031629  0.70159734  0.83212560     1.09700
C226        C  0.43818939  0.74304213  0.84433107     1.09700
C227        C  0.56248412  0.75885118  0.84367831     1.09600
C228        C  0.75411377  0.23840878  0.77348542     0.02500
C229        C  0.77048633  0.25973016  0.76590708     0.02500
C230        C  0.76264298  0.27618328  0.74469569     0.02500
C231        C  0.73984705  0.27006280  0.72979584     0.02500
C232        C  0.72398718  0.24829421  0.73686881     0.02500
C233        C  0.73192633  0.23156723  0.75789665     0.02500
O234        O  0.88990245  0.44779016  0.77395276    -0.80000
O235        O  0.88611215  0.55415161  0.72231209    -0.80000
O236        O  0.91483464  0.50004928  0.70653832    -0.80000
O237        O  0.91591037  0.50380103  0.79018259    -0.79900
O238        O  0.88070830  0.51765753  0.68767808    -0.80100
O239        O  0.88297961  0.48426498  0.80902180    -0.80000
O240        O  0.91778782  0.53756231  0.74695726    -0.80000
O241        O  0.91992040  0.46607758  0.74869948    -0.80000
C242        C  0.91364487  0.45047942  0.76676938     1.09700
C243        C  0.91012978  0.55269900  0.72894732     1.09600
C244        C  0.90467109  0.51127553  0.68690182     1.09700
C245        C  0.90645556  0.49225611  0.81001651     1.09600
O246        O  0.83375572  0.50065800  0.78581074    -0.80000
O247        O  0.83284176  0.49867395  0.71146516    -0.80000
O248        O  0.87220723  0.43991641  0.73165600    -0.80000
O249        O  0.86905585  0.56129817  0.76478368    -0.80000
O250        O  0.83554545  0.54177589  0.74678958    -0.80000
O251        O  0.83823664  0.45816335  0.75017042    -0.80000
O252        O  0.86484840  0.52656952  0.80140471    -0.79900
O253        O  0.86516725  0.47453892  0.69533994    -0.80000
Co254      Co  0.86125013  0.47494716  0.77684671     1.51500
Co255      Co  0.85900475  0.52571173  0.72003797     1.51700
Co256      Co  0.89269388  0.47285059  0.72292056     1.51600
Co257      Co  0.89165963  0.52952566  0.77343519     1.51500
O258        O  0.87598788  0.50075438  0.74835063    -1.41900
C259        C  0.84168402  0.51761980  0.80221235     1.09600
C260        C  0.84152563  0.48235750  0.69476593     1.09700
C261        C  0.84829434  0.43878947  0.73820637     1.09700
C262        C  0.84517936  0.56185017  0.75788214     1.09600
O263        O  0.99656076  0.21178069  0.33335291    -0.80000
O264        O  0.00121466  0.28760226  0.33004476    -0.80000
O265        O  0.94027530  0.23387625  0.36699120    -0.80000
O266        O  0.05832872  0.26976701  0.36402058    -0.79900
O267        O  0.95956189  0.25201895  0.33317337    -0.80100
O268        O  0.03870952  0.24794083  0.33238987    -0.80000
O269        O  0.02388618  0.30659207  0.36146777    -0.80000
O270        O  0.97448058  0.19686110  0.36727823    -0.80000
C271        C  0.98053730  0.19567997  0.34318975     1.09700
C272        C  0.01571966  0.30598189  0.33794116     1.09600
C273        C  0.93995010  0.24041806  0.34287523     1.09700
C274        C  0.05843054  0.26058211  0.34071746     1.09600
O275        O  0.05365565  0.22765677  0.38292159    -0.80000
O276        O  0.94515192  0.27756429  0.38198030    -0.80000
O277        O  0.99786270  0.21354650  0.41605019    -0.80000
O278        O  0.00169143  0.29484339  0.41250090    -0.80000
O279        O  0.98144688  0.31199548  0.37861603    -0.80000
O280        O  0.01752442  0.19295011  0.38364706    -0.80000
O281        O  0.03806248  0.25228818  0.41502722    -0.79900
O282        O  0.96206442  0.25613718  0.41550507    -0.80000
Co283      Co  0.02413517  0.22285164  0.35816061     1.51500
Co284      Co  0.97426203  0.27959909  0.35621684     1.51700
Co285      Co  0.97141246  0.22759548  0.39120391     1.51600
Co286      Co  0.02778639  0.27834322  0.38827119     1.51500
O287        O  0.99943509  0.25208836  0.37362525    -1.41900
C288        C  0.05470341  0.23600714  0.40636942     1.09600
C289        C  0.94468178  0.27100639  0.40598023     1.09700
C290        C  0.01016433  0.19357463  0.40752438     1.09700
C291        C  0.98906153  0.31382933  0.40236038     1.09600
C292        C  0.23294513  0.26982464  0.24242083     0.02500
C293        C  0.22519316  0.25285368  0.26320607     0.02500
C294        C  0.24076709  0.23066724  0.26970843     0.02500
C295        C  0.26267398  0.22411582  0.25379992     0.02500
C296        C  0.27059976  0.24110078  0.23313408     0.02500
C297        C  0.25465064  0.26293145  0.22630411     0.02500
O298        O  0.21536965  0.33344001  0.99439176    -0.80000
O299        O  0.28742500  0.33324774  0.99881744    -0.80000
O300        O  0.23779168  0.37441451  0.93765879    -0.80000
O301        O  0.26622515  0.36778808  0.06016310    -0.79900
O302        O  0.25489782  0.33941797  0.95523383    -0.80100
O303        O  0.24818733  0.33478148  0.03954106    -0.80000
O304        O  0.30369033  0.36273172  0.02642806    -0.80000
O305        O  0.19983850  0.36624304  0.97047411    -0.80000
C306        C  0.19922782  0.34228311  0.97769709     1.09700
C307        C  0.30190159  0.33916864  0.01803514     1.09600
C308        C  0.24407630  0.35036927  0.93580687     1.09700
C309        C  0.25872245  0.34403628  0.06014024     1.09600
O310        O  0.22410198  0.38538235  0.05157255    -0.80000
O311        O  0.27985696  0.39115963  0.94779621    -0.80000
O312        O  0.20985306  0.41598133  0.99780536    -0.80000
O313        O  0.29405533  0.41541996  0.00474921    -0.80000
O314        O  0.31298671  0.38217759  0.98532080    -0.80000
O315        O  0.19092927  0.38117369  0.01369807    -0.80000
O316        O  0.24975102  0.41764138  0.03804403    -0.79900
O317        O  0.25393599  0.42119527  0.96574706    -0.80000
Co318      Co  0.22269953  0.35904533  0.02246482     1.51500
Co319      Co  0.28091891  0.36160802  0.97393480     1.51700
Co320      Co  0.22761936  0.39402381  0.97079015     1.51600
Co321      Co  0.27620362  0.39086846  0.02928459     1.51500
O322        O  0.25186579  0.37641130  0.99917226    -1.41900
C323        C  0.23228300  0.40893616  0.05332414     1.09600
C324        C  0.27257466  0.41499095  0.95069342     1.09700
C325        C  0.18987780  0.40532341  0.00775085     1.09700
C326        C  0.31388658  0.40581157  0.99327781     1.09600
C327        C  0.25496176  0.23580973  0.72634491     0.02500
C328        C  0.23347537  0.22874161  0.74276398     0.02500
C329        C  0.22601731  0.24582838  0.76380121     0.02500
C330        C  0.24192149  0.26777540  0.77035623     0.02500
C331        C  0.26366505  0.27436759  0.75437273     0.02500
C332        C  0.27108301  0.25759306  0.73327038     0.02500
O333        O  0.55325355  0.27168265  0.61631564    -0.80000
O334        O  0.44474194  0.22092604  0.61176414    -0.80000
O335        O  0.50265907  0.20582542  0.58275339    -0.80000
O336        O  0.49786844  0.28624392  0.58258978    -0.79900
O337        O  0.48103180  0.18679987  0.61468470    -0.80100
O338        O  0.51588694  0.30573749  0.61654029    -0.80000
O339        O  0.46176368  0.24392916  0.57943232    -0.80000
O340        O  0.53915276  0.24787280  0.58297045    -0.80000
C341        C  0.55490971  0.26456466  0.59247755     1.09700
C342        C  0.44449930  0.22842869  0.58804606     1.09600
C343        C  0.48931227  0.18659794  0.59111736     1.09700
C344        C  0.50947831  0.30600036  0.59237553     1.09600
O345        O  0.49441453  0.28359061  0.66521098    -0.80000
O346        O  0.49899165  0.20870104  0.66520443    -0.80000
O347        O  0.55796844  0.22829239  0.63333858    -0.80000
O348        O  0.43845872  0.26375837  0.62812883    -0.80000
O349        O  0.45604550  0.24436645  0.66227879    -0.80000
O350        O  0.53782131  0.24855371  0.66557541    -0.80000
O351        O  0.47268603  0.30024543  0.63171579    -0.79900
O352        O  0.52301008  0.19117944  0.63384593    -0.80000
Co353      Co  0.52283760  0.27458962  0.64060566     1.51500
Co354      Co  0.47279592  0.21796066  0.63848824     1.51700
Co355      Co  0.52790119  0.22073737  0.60836789     1.51600
Co356      Co  0.47060367  0.27106658  0.60573176     1.51500
O357        O  0.49860221  0.24607770  0.62315605    -1.41900
C358        C  0.47860521  0.30030510  0.65591953     1.09600
C359        C  0.51379020  0.19054858  0.65702937     1.09700
C360        C  0.55781085  0.23638817  0.65700167     1.09700
C361        C  0.43681182  0.25640716  0.65194749     1.09600
O362        O  0.33127157  0.99791511  0.21682155    -0.80000
O363        O  0.33509313  0.99944514  0.28911828    -0.80000
O364        O  0.37173191  0.93845410  0.23379796    -0.80000
O365        O  0.37004690  0.05974775  0.26757138    -0.79900
O366        O  0.33814893  0.95593100  0.25369526    -0.80100
O367        O  0.33593901  0.04028594  0.25089217    -0.80000
O368        O  0.36655795  0.02507550  0.30448615    -0.80000
O369        O  0.36181153  0.97348033  0.19795021    -0.80000
C370        C  0.33786992  0.97987846  0.20118255     1.09700
C371        C  0.34344349  0.01583095  0.30596080     1.09600
C372        C  0.34836860  0.93645283  0.24196010     1.09700
C373        C  0.34606467  0.06029974  0.26145572     1.09600
O374        O  0.38477718  0.05282230  0.22394485    -0.80000
O375        O  0.39074788  0.94647993  0.27543212    -0.80000
O376        O  0.41273813  0.99926227  0.20700282    -0.80000
O377        O  0.41734458  0.00257600  0.29121827    -0.80000
O378        O  0.38476953  0.98261574  0.31040304    -0.80000
O379        O  0.37788442  0.01616754  0.18915475    -0.80000
O380        O  0.41787190  0.03743604  0.24752532    -0.79900
O381        O  0.41981385  0.96437812  0.24865818    -0.80000
Co382      Co  0.35792981  0.02444183  0.22291911     1.51500
Co383      Co  0.36211817  0.97350098  0.27917566     1.51700
Co384      Co  0.39134735  0.97168699  0.22404838     1.51600
Co385      Co  0.39265445  0.02825490  0.27523787     1.51500
O386        O  0.37607330  0.99947576  0.25043291    -1.41900
C387        C  0.40859071  0.05374208  0.23117734     1.09600
C388        C  0.41414052  0.94876041  0.26704733     1.09700
C389        C  0.40201133  0.01037492  0.18761094     1.09700
C390        C  0.40816108  0.99073820  0.31104413     1.09600
C391        C  0.49001588  0.01821517  0.51633853     0.02500
C392        C  0.51175919  0.00270676  0.52439259     0.02500
C393        C  0.51943085  0.98031635  0.50939786     0.02500
C394        C  0.50381493  0.97220422  0.48772227     0.02500
C395        C  0.48211920  0.98786175  0.47969388     0.02500
C396        C  0.47418670  0.00987001  0.49493632     0.02500
O397        O  0.46956917  0.74584006  0.42288911    -0.80000
O398        O  0.54273975  0.74525687  0.41379412    -0.80000
O399        O  0.48343589  0.68657289  0.38163915    -0.80000
O400        O  0.51876105  0.80672857  0.38169962    -0.79900
O401        O  0.50647006  0.70361971  0.41343586    -0.80100
O402        O  0.50385263  0.78691113  0.41638805    -0.80000
O403        O  0.55548505  0.77105923  0.38135935    -0.80000
O404        O  0.44865485  0.72173246  0.39354088    -0.80000
C405        C  0.45325280  0.72822644  0.41729715     1.09700
C406        C  0.55844788  0.76197129  0.40443010     1.09600
C407        C  0.49340387  0.68455882  0.40438217     1.09700
C408        C  0.51389309  0.80699085  0.40611382     1.09600
O409        O  0.47432698  0.80126606  0.36891480    -0.80000
O410        O  0.52316247  0.69313018  0.35907033    -0.80000
O411        O  0.45494542  0.74772886  0.34204173    -0.80000
O412        O  0.53802772  0.74959113  0.33147176    -0.80000
O413        O  0.55947202  0.72837024  0.36190911    -0.80000
O414        O  0.43928566  0.76472989  0.37787330    -0.80000
O415        O  0.49520147  0.78466271  0.33463176    -0.79900
O416        O  0.49552251  0.71329565  0.33244692    -0.80000
Co417      Co  0.47440714  0.77235041  0.39581738     1.51500
Co418      Co  0.53008682  0.72007060  0.38729870     1.51700
Co419      Co  0.47289849  0.71998456  0.36243493     1.51600
Co420      Co  0.52443177  0.77520558  0.35781890     1.51500
O421        O  0.50059163  0.74692228  0.37604768    -1.41900
C422        C  0.48011715  0.80171843  0.34457967     1.09600
C423        C  0.51244583  0.69580311  0.33664850     1.09700
C424        C  0.43612076  0.75852441  0.35388763     1.09700
C425        C  0.55814846  0.73679625  0.33851506     1.09600
O426        O  0.58071719  0.96634867  0.75367512    -0.80000
O427        O  0.58003900  0.03519020  0.75466166    -0.80000
O428        O  0.62370782  0.98706151  0.81386240    -0.80000
O429        O  0.61731723  0.01646574  0.69040728    -0.79900
O430        O  0.58847245  0.00351082  0.79707224    -0.80100
O431        O  0.58389652  0.99881335  0.70958883    -0.80000
O432        O  0.60683510  0.05296151  0.72537779    -0.80000
O433        O  0.61193741  0.95028895  0.77959695    -0.80000
C434        C  0.58796769  0.95185859  0.77247228     1.09700
C435        C  0.58399687  0.05009446  0.73537122     1.09600
C436        C  0.59977503  0.99296022  0.81629045     1.09700
C437        C  0.59367906  0.00938783  0.68948203     1.09600
O438        O  0.63578334  0.97447163  0.69975709    -0.80000
O439        O  0.64068835  0.02943186  0.80266060    -0.80000
O440        O  0.66239696  0.95822113  0.75242045    -0.80000
O441        O  0.66086306  0.04563858  0.74783607    -0.80000
O442        O  0.62724839  0.06374683  0.76625899    -0.80000
O443        O  0.62744888  0.93991407  0.73672354    -0.80000
O444        O  0.66568968  0.00243094  0.71478376    -0.79900
O445        O  0.66925256  0.00200360  0.78428481    -0.80000
Co446      Co  0.60736788  0.97290546  0.72716329     1.51500
Co447      Co  0.60942920  0.03009268  0.77805067     1.51700
Co448      Co  0.64130678  0.97661620  0.77962655     1.51600
Co449      Co  0.63753516  0.02730066  0.72259215     1.51500
O450        O  0.62394547  0.00167258  0.75180584    -1.41900
C451        C  0.65931495  0.98291522  0.70071820     1.09600
C452        C  0.66416655  0.02137741  0.79898422     1.09700
C453        C  0.65144531  0.93829479  0.74262099     1.09700
C454        C  0.65069774  0.06548965  0.75856786     1.09600
C455        C  0.51809398  0.99064834  0.98157168     0.02500
C456        C  0.49634855  0.97481789  0.98879497     0.02500
C457        C  0.47908290  0.98351610  0.00896812     0.02500
C458        C  0.48513499  0.00668952  0.02344655     0.02500
C459        C  0.50712768  0.02225365  0.01650635     0.02500
C460        C  0.52473405  0.01320107  0.99674916     0.02500
O461        O  0.46404601  0.25483213  0.08422467    -0.80000
O462        O  0.53570121  0.25315949  0.08278713    -0.80000
O463        O  0.48619824  0.31325745  0.12572685    -0.80000
O464        O  0.51566689  0.19020957  0.11848109    -0.79900
O465        O  0.50254708  0.29567940  0.09048843    -0.80100
O466        O  0.49695510  0.21026804  0.08576006    -0.80000
O467        O  0.55249868  0.22475833  0.11119395    -0.80000
O468        O  0.44893515  0.27964798  0.11679311    -0.80000
C469        C  0.44827785  0.27199857  0.09298019     1.09700
C470        C  0.55048697  0.23394132  0.08798910     1.09600
C471        C  0.49223531  0.31525856  0.10164809     1.09700
C472        C  0.50817770  0.19003953  0.09475735     1.09600
O473        O  0.47387194  0.19891776  0.13764487    -0.80000
O474        O  0.52825911  0.30265888  0.14252148    -0.80000
O475        O  0.45786862  0.25259241  0.16649693    -0.80000
O476        O  0.54373245  0.24656536  0.16422495    -0.80000
O477        O  0.56224023  0.26609284  0.13127793    -0.80000
O478        O  0.43960808  0.23632500  0.13148276    -0.80000
O479        O  0.50103110  0.21420987  0.16796940    -0.79900
O480        O  0.50230284  0.28401607  0.17193946    -0.80000
Co481      Co  0.47170970  0.22730801  0.11010756     1.51500
Co482      Co  0.52928869  0.27726303  0.11194150     1.51700
Co483      Co  0.47621845  0.27948960  0.14469836     1.51600
Co484      Co  0.52603859  0.22181427  0.14033742     1.51500
O485        O  0.50077880  0.25140585  0.12668231    -1.41900
C486        C  0.48184473  0.20014857  0.16141207     1.09600
C487        C  0.52081348  0.29925535  0.16621810     1.09700
C488        C  0.43803101  0.24255096  0.15550636     1.09700
C489        C  0.56351529  0.25760616  0.15460462     1.09600
O490        O  0.19529051  0.13749602  0.47253870    -0.80000
O491        O  0.30003552  0.13303675  0.52383329    -0.80000
O492        O  0.24824830  0.16307685  0.54069412    -0.80000
O493        O  0.24990231  0.15745093  0.45382878    -0.79900
O494        O  0.26434608  0.12842882  0.55973760    -0.80100
O495        O  0.23034338  0.12344586  0.43737608    -0.80000
O496        O  0.28413338  0.16263741  0.49599126    -0.80000
O497        O  0.21492187  0.16767900  0.49720935    -0.80000
C498        C  0.19885715  0.16140964  0.47944804     1.09700
C499        C  0.29896098  0.15645390  0.51486635     1.09600
C500        C  0.25851105  0.15261297  0.56074125     1.09700
C501        C  0.23859137  0.14670990  0.43459862     1.09600
O502        O  0.24337057  0.07639287  0.46580889    -0.80000
O503        O  0.24428410  0.08058832  0.53762384    -0.80000
O504        O  0.18587538  0.12299563  0.51609801    -0.80000
O505        O  0.30702876  0.11282135  0.48245942    -0.80000
O506        O  0.28775192  0.08039345  0.50229629    -0.80000
O507        O  0.20180806  0.08671192  0.50014421    -0.80000
O508        O  0.27150770  0.10360102  0.44691102    -0.79900
O509        O  0.22066393  0.11420348  0.55248811    -0.80000
Co510      Co  0.21991232  0.10629771  0.47180344     1.51500
Co511      Co  0.27175610  0.10578795  0.52780239     1.51700
Co512      Co  0.22025409  0.14127933  0.52413439     1.51600
Co513      Co  0.27529290  0.13416233  0.47206294     1.51500
O514        O  0.24682134  0.12177594  0.49900883    -1.41900
C515        C  0.26223934  0.08057495  0.45028563     1.09600
C516        C  0.22787850  0.09024693  0.55373745     1.09700
C517        C  0.18302985  0.09882077  0.51085857     1.09700
C518        C  0.30765593  0.08932320  0.49051210     1.09600
C519        C  0.76342774  0.77220140  0.25485741     0.02500
C520        C  0.77240907  0.75486863  0.23488250     0.02500
C521        C  0.75701338  0.73286165  0.22764736     0.02500
C522        C  0.73436071  0.72645899  0.24255907     0.02500
C523        C  0.72535660  0.74380307  0.26260194     0.02500
C524        C  0.74069909  0.76602738  0.26959436     0.02500
O525        O  0.61201121  0.55446118  0.27529403    -0.80000
O526        O  0.61752562  0.44519109  0.22688384    -0.80000
O527        O  0.58470265  0.49827974  0.21102925    -0.80000
O528        O  0.58828576  0.49777748  0.29307505    -0.79900
O529        O  0.61832899  0.48096368  0.19103122    -0.80100
O530        O  0.62086502  0.51882357  0.31097026    -0.80000
O531        O  0.58596441  0.46077640  0.25219835    -0.80000
O532        O  0.58139376  0.53333655  0.25324127    -0.80000
C533        C  0.58830765  0.55181962  0.26822000     1.09700
C534        C  0.59453123  0.44378105  0.23617675     1.09600
C535        C  0.59426216  0.48726636  0.19091260     1.09700
C536        C  0.59753650  0.51045680  0.31230033     1.09600
O537        O  0.66968327  0.50367864  0.28566120    -0.80000
O538        O  0.66681349  0.50262685  0.21183393    -0.80000
O539        O  0.62710889  0.56044746  0.23193100    -0.80000
O540        O  0.63639065  0.44092148  0.26926087    -0.80000
O541        O  0.66801051  0.46020068  0.24785588    -0.80000
O542        O  0.66228589  0.54398866  0.24971567    -0.80000
O543        O  0.64106998  0.47732756  0.30461105    -0.79900
O544        O  0.63291308  0.52484768  0.19630368    -0.80000
Co545      Co  0.64105060  0.52782350  0.27781494     1.51500
Co546      Co  0.64242259  0.47482493  0.22222299     1.51700
Co547      Co  0.60701542  0.52655145  0.22556276     1.51600
Co548      Co  0.61285149  0.47197095  0.27749606     1.51500
O549        O  0.62610912  0.50019027  0.25073979    -1.41900
C550        C  0.66437679  0.48567906  0.30174307     1.09600
C551        C  0.65696869  0.51844095  0.19542233     1.09700
C552        C  0.65104502  0.56278186  0.23810358     1.09700
C553        C  0.65948588  0.44035137  0.26016877     1.09600
C554        C  0.77408593  0.24292204  0.26360746     0.02500
C555        C  0.76578663  0.22603885  0.24290338     0.02500
C556        C  0.74357578  0.23277171  0.22755524     0.02500
C557        C  0.72855840  0.25528343  0.23440091     0.02500
C558        C  0.73691940  0.27231073  0.25483912     0.02500
C559        C  0.75869476  0.26509660  0.27060191     0.02500
C560        C  0.77214023  0.74446595  0.73150145     0.02500
C561        C  0.76578318  0.72905431  0.75396999     0.02500
C562        C  0.74441018  0.73647169  0.77030043     0.02500
C563        C  0.72763105  0.75739367  0.76245071     0.02500
C564        C  0.73412691  0.77288396  0.74016005     0.02500
C565        C  0.75544916  0.76547774  0.72376383     0.02500
O566        O  0.16902649  0.99626005  0.78433465    -0.80000
O567        O  0.16562749  0.99773665  0.71510946    -0.80000
O568        O  0.12508173  0.93710426  0.76592023    -0.80000
O569        O  0.13027233  0.06085437  0.73734486    -0.79900
O570        O  0.15947207  0.95379204  0.74755719    -0.80100
O571        O  0.16461924  0.04109109  0.75295094    -0.80000
O572        O  0.13635865  0.02643908  0.70011797    -0.80000
O573        O  0.13893000  0.97062443  0.80250567    -0.80000
C574        C  0.16274292  0.97764890  0.79939375     1.09700
C575        C  0.15977301  0.01760077  0.70133092     1.09600
C576        C  0.14840428  0.93436145  0.75809262     1.09700
C577        C  0.15435072  0.06146051  0.74311508     1.09600
O578        O  0.11492640  0.05139723  0.78028382    -0.80000
O579        O  0.10615127  0.94840454  0.72465304    -0.80000
O580        O  0.08818005  0.99892929  0.79681197    -0.80000
O581        O  0.08386002  0.00403957  0.71045141    -0.80000
O582        O  0.11667832  0.98537994  0.69071914    -0.80000
O583        O  0.12420791  0.01357524  0.81382408    -0.80000
O584        O  0.08249604  0.03669991  0.75523996    -0.79900
O585        O  0.07876443  0.96634331  0.75356044    -0.80000
Co586      Co  0.14255855  0.02330809  0.77993967     1.51500
Co587      Co  0.13696622  0.97343011  0.72244925     1.51700
Co588      Co  0.10806808  0.97121211  0.77760517     1.51600
Co589      Co  0.10841081  0.02892407  0.72797197     1.51500
O590        O  0.12398494  0.99922138  0.75194256    -1.41900
C591        C  0.09122340  0.05244606  0.77241536     1.09600
C592        C  0.08319507  0.95111680  0.73437121     1.09700
C593        C  0.10013583  0.00845026  0.81630744     1.09700
C594        C  0.09327052  0.99343932  0.69006121     1.09600
O595        O  0.75116740  0.42030753  0.53197528    -0.80000
O596        O  0.75112486  0.41588805  0.46173614    -0.80000
O597        O  0.81272071  0.37936926  0.51485635    -0.80000
O598        O  0.68987639  0.37741054  0.48381694    -0.79900
O599        O  0.79451225  0.41258105  0.49525985    -0.80100
O600        O  0.70825621  0.41264356  0.49909706    -0.80000
O601        O  0.72476387  0.38462241  0.44678363    -0.80000
O602        O  0.77799236  0.39139887  0.55058883    -0.80000
C603        C  0.76998356  0.41498556  0.54717620     1.09700
C604        C  0.73399242  0.40791191  0.44565328     1.09600
C605        C  0.81412296  0.40286856  0.50681847     1.09700
C606        C  0.68836289  0.40157094  0.48945067     1.09600
O607        O  0.69956923  0.36263943  0.52721509    -0.80000
O608        O  0.80308057  0.35914925  0.47381656    -0.80000
O609        O  0.75315776  0.33921463  0.54476302    -0.80000
O610        O  0.74890481  0.33336332  0.45833964    -0.80000
O611        O  0.76685696  0.36659217  0.43869364    -0.80000
O612        O  0.73594199  0.37451559  0.56145346    -0.80000
O613        O  0.71618904  0.33090935  0.50221014    -0.79900
O614        O  0.78605553  0.33086882  0.50210015    -0.80000
Co615      Co  0.72594893  0.39206979  0.52705558     1.51500
Co616      Co  0.77667892  0.38847258  0.47038306     1.51700
Co617      Co  0.77966118  0.36033799  0.52589031     1.51600
Co618      Co  0.72285275  0.35710866  0.47511197     1.51500
O619        O  0.75129477  0.37448935  0.49958866    -1.41900
C620        C  0.70150202  0.33840595  0.52076077     1.09600
C621        C  0.80012789  0.33574037  0.48232535     1.09700
C622        C  0.74244251  0.35064585  0.56399823     1.09700
C623        C  0.75925727  0.34297779  0.43803379     1.09600
C624        C  0.97720068  0.48744218  0.50619409     0.02500
C625        C  0.98521761  0.50861033  0.52246781     0.02500
C626        C  0.00732743  0.52383245  0.51566868     0.02500
C627        C  0.02295366  0.51634611  0.49391477     0.02500
C628        C  0.01487312  0.49524114  0.47737514     0.02500
C629        C  0.99267840  0.47994043  0.48428006     0.02500
O630        O  0.80314845  0.63387499  0.02512964    -0.80000
O631        O  0.70027060  0.63974466  0.97055782    -0.80000
O632        O  0.75520215  0.66229604  0.95463570    -0.80000
O633        O  0.75065556  0.66295213  0.04108244    -0.79900
O634        O  0.73635722  0.62853352  0.93648848    -0.80100
O635        O  0.76589000  0.62753946  0.05936592    -0.80000
O636        O  0.71795432  0.66970628  0.99697048    -0.80000
O637        O  0.78918421  0.66565041  0.99867162    -0.80000
C638        C  0.80430804  0.65740803  0.01666950     1.09700
C639        C  0.70311322  0.66354545  0.97799318     1.09600
C640        C  0.74400819  0.65216461  0.93490953     1.09700
C641        C  0.76037496  0.65178131  0.06098868     1.09600
O642        O  0.74792458  0.58076799  0.03310247    -0.80000
O643        O  0.74932130  0.58019320  0.96330971    -0.80000
O644        O  0.81156906  0.61648028  0.98268164    -0.80000
O645        O  0.68952208  0.62359819  0.01269171    -0.80000
O646        O  0.70627861  0.58796446  0.99609691    -0.80000
O647        O  0.79202919  0.58302934  0.00050127    -0.80000
O648        O  0.72299368  0.61256097  0.04974820    -0.79900
O649        O  0.77713699  0.60885918  0.94616218    -0.80000
Co650      Co  0.77497826  0.60675744  0.02659341     1.51500
Co651      Co  0.72524232  0.60926209  0.96949469     1.51700
Co652      Co  0.78020976  0.63831277  0.97274265     1.51600
Co653      Co  0.72322438  0.64180776  0.02293837     1.51500
O654        O  0.75096947  0.62415538  0.99796061    -1.41900
C655        C  0.72964952  0.58835123  0.04802822     1.09600
C656        C  0.76853857  0.58540340  0.94866934     1.09700
C657        C  0.81211473  0.59272107  0.98980115     1.09700
C658        C  0.68706447  0.59961055  0.00654208     1.09600
C659        C  0.48694421  0.50683837  0.97715724     0.02500
C660        C  0.50778643  0.52354010  0.98499350     0.02500
C661        C  0.52280506  0.51747520  0.00782452     0.02500
C662        C  0.51537751  0.49601849  0.02403065     0.02500
C663        C  0.49498552  0.47893966  0.01584112     0.02500
C664        C  0.47964482  0.48537144  0.99336092     0.02500
O665        O  0.78410586  0.16888475  0.00441579    -0.80000
O666        O  0.71062333  0.16362943  0.00424477    -0.80000
O667        O  0.76819255  0.13772745  0.94042699    -0.80000
O668        O  0.73315752  0.12247413  0.06042885    -0.79900
O669        O  0.74542951  0.16771160  0.96114129    -0.80100
O670        O  0.74904077  0.15867127  0.04449828    -0.80000
O671        O  0.69605803  0.12884910  0.02556948    -0.80000
O672        O  0.80364852  0.14185214  0.97660056    -0.80000
C673        C  0.80040281  0.16473859  0.98629953     1.09700
C674        C  0.69434357  0.15308454  0.01964415     1.09600
C675        C  0.75814689  0.16054489  0.94096496     1.09700
C676        C  0.73855652  0.14669696  0.06338935     1.09600
O677        O  0.77634178  0.10787178  0.05168501    -0.80000
O678        O  0.72656641  0.11681847  0.94415748    -0.80000
O679        O  0.79470801  0.08753631  0.99412574    -0.80000
O680        O  0.71156639  0.08154118  0.99658728    -0.80000
O681        O  0.69102367  0.11558904  0.98091751    -0.80000
O682        O  0.81125874  0.11982611  0.01687705    -0.80000
O683        O  0.75367897  0.07746543  0.03070888    -0.79900
O684        O  0.75338308  0.08558689  0.95782171    -0.80000
Co685      Co  0.77743310  0.13867999  0.02702477     1.51500
Co686      Co  0.72130197  0.14052751  0.97513287     1.51700
Co687      Co  0.77758140  0.11294423  0.97012744     1.51600
Co688      Co  0.72602805  0.10336639  0.02563829     1.51500
O689        O  0.75054601  0.12394240  0.99934480    -1.41900
C690        C  0.77095664  0.08384463  0.04712775     1.09600
C691        C  0.73712397  0.09433437  0.94126380     1.09700
C692        C  0.81348066  0.09680438  0.00739116     1.09700
C693        C  0.69126312  0.09127956  0.98627095     1.09600
O694        O  0.36238302  0.52460366  0.69660741    -0.80000
O695        O  0.36850201  0.47264623  0.80201372    -0.80000
O696        O  0.34126084  0.45587009  0.74845789    -0.80000
O697        O  0.33577892  0.54019384  0.75235356    -0.79900
O698        O  0.37609626  0.43804909  0.76522862    -0.80100
O699        O  0.36856356  0.55947084  0.73297024    -0.80000
O700        O  0.33530598  0.49595652  0.78642645    -0.80000
O701        O  0.33383827  0.49726038  0.71440818    -0.80000
C702        C  0.33911143  0.51597708  0.69912994     1.09700
C703        C  0.34462998  0.47970843  0.80272732     1.09600
C704        C  0.35214258  0.43625652  0.75880832     1.09700
C705        C  0.34518331  0.56026848  0.74109225     1.09600
O706        O  0.41805329  0.53796368  0.74925014    -0.80000
O707        O  0.42256156  0.46618531  0.74774687    -0.80000
O708        O  0.38200876  0.48315713  0.68823370    -0.80000
O709        O  0.38293776  0.51617568  0.81013454    -0.80000
O710        O  0.41733063  0.49994539  0.79065580    -0.80000
O711        O  0.41509118  0.50308731  0.70637095    -0.80000
O712        O  0.38646280  0.55262837  0.77529370    -0.79900
O713        O  0.39258109  0.44718439  0.72273029    -0.80000
Co714      Co  0.39106885  0.52834428  0.72352517     1.51500
Co715      Co  0.39564054  0.47193934  0.77409138     1.51700
Co716      Co  0.36257256  0.47302651  0.72123398     1.51600
Co717      Co  0.36041060  0.52375519  0.77810733     1.51500
O718        O  0.37739041  0.49938110  0.74924575    -1.41900
C719        C  0.40949464  0.55430831  0.76597982     1.09600
C720        C  0.41632756  0.45016545  0.72991954     1.09700
C721        C  0.40531231  0.49136502  0.68680523     1.09700
C722        C  0.40713885  0.51067125  0.81065578     1.09600
O723        O  0.77021151  0.89735416  0.44480927    -0.80000
O724        O  0.72247433  0.88268476  0.55210955    -0.80000
O725        O  0.70244559  0.91021850  0.50026142    -0.80000
O726        O  0.78500665  0.92187583  0.50135612    -0.79900
O727        O  0.68758493  0.87343846  0.51542683    -0.80100
O728        O  0.80679867  0.89215918  0.47939988    -0.80000
O729        O  0.74297812  0.91768223  0.53672579    -0.80000
O730        O  0.74159870  0.92228950  0.46599576    -0.80000
C731        C  0.75910736  0.91951459  0.44887491     1.09700
C732        C  0.72749262  0.90720773  0.55295483     1.09600
C733        C  0.68401740  0.89761151  0.51053454     1.09700
C734        C  0.80515341  0.91530701  0.48842847     1.09600
O735        O  0.79030536  0.83993693  0.49408086    -0.80000
O736        O  0.71851766  0.82987571  0.49510441    -0.80000
O737        O  0.73081891  0.87445052  0.43674589    -0.80000
O738        O  0.76727097  0.87051859  0.55759263    -0.80000
O739        O  0.75279992  0.83589346  0.53713384    -0.80000
O740        O  0.75375747  0.84195147  0.45231350    -0.80000
O741        O  0.80325356  0.87148022  0.52122877    -0.79900
O742        O  0.69690005  0.85947809  0.47178218    -0.80000
Co743      Co  0.77743766  0.86740890  0.47003739     1.51500
Co744      Co  0.72300430  0.85626602  0.52259863     1.51700
Co745      Co  0.72016860  0.89144377  0.47136395     1.51600
Co746      Co  0.77222544  0.89492023  0.52640244     1.51500
O747        O  0.74835814  0.87729824  0.49763486    -1.41900
C748        C  0.80580128  0.84851764  0.51156764     1.09600
C749        C  0.70215704  0.83562547  0.47745361     1.09700
C750        C  0.74075169  0.85179655  0.43362008     1.09700
C751        C  0.76272870  0.84601730  0.55749202     1.09600
O752        O  0.08139311  0.53414223  0.24524403    -0.80000
O753        O  0.08085836  0.46463985  0.24477305    -0.80000
O754        O  0.12578740  0.51507951  0.18751130    -0.80000
O755        O  0.11438535  0.48251177  0.30949970    -0.79900
O756        O  0.09013061  0.49796440  0.20295706    -0.80100
O757        O  0.08183301  0.50135822  0.28934182    -0.80000
O758        O  0.10778999  0.44651365  0.27381892    -0.80000
O759        O  0.11394540  0.55123953  0.22212567    -0.80000
C760        C  0.08958892  0.54890443  0.22719614     1.09700
C761        C  0.08504188  0.44910631  0.26357404     1.09600
C762        C  0.10204686  0.50878279  0.18420966     1.09700
C763        C  0.09092970  0.49035293  0.30968329     1.09600
O764        O  0.13179740  0.52528633  0.30272731    -0.80000
O765        O  0.14174031  0.47251224  0.19807664    -0.80000
O766        O  0.16274074  0.54113036  0.25145384    -0.80000
O767        O  0.16196518  0.45576821  0.25405202    -0.80000
O768        O  0.12935097  0.43775838  0.23346894    -0.80000
O769        O  0.12757787  0.56039891  0.26592360    -0.80000
O770        O  0.16378527  0.49893258  0.28907963    -0.79900
O771        O  0.17072595  0.49831833  0.21772685    -0.80000
Co772      Co  0.10613943  0.52745229  0.27336893     1.51500
Co773      Co  0.11062192  0.47103212  0.22209070     1.51700
Co774      Co  0.14277524  0.52423634  0.22253887     1.51600
Co775      Co  0.13706313  0.47310691  0.27861124     1.51500
O776        O  0.12417854  0.49895634  0.24924718    -1.41900
C777        C  0.15512061  0.51664046  0.30442858     1.09600
C778        C  0.16530057  0.47971477  0.20214024     1.09700
C779        C  0.15199382  0.56118260  0.26148971     1.09700
C780        C  0.15255757  0.43620765  0.24204269     1.09600
C781        C  0.51453035  0.50207956  0.47636909     0.02500
C782        C  0.49266887  0.51792291  0.48358268     0.02500
C783        C  0.47665658  0.51044584  0.50507470     0.02500
C784        C  0.48403716  0.48864333  0.52080182     0.02500
C785        C  0.50562258  0.47266304  0.51353496     0.02500
C786        C  0.52151505  0.47995025  0.49192820     0.02500
C787        C  0.98624542  0.49414534  0.97691430     0.02500
C788        C  0.00780330  0.47835436  0.98473468     0.02500
C789        C  0.02452312  0.48691750  0.00534561     0.02500
C790        C  0.01777142  0.50949577  0.02043143     0.02500
C791        C  0.99552861  0.52476661  0.01340238     0.02500
C792        C  0.97915169  0.51641935  0.99237783     0.02500
C793        C  0.05980458  0.51276909  0.12954572     0.29900
C794        C  0.03596579  0.51039975  0.11601787    -0.36400
C795        C  0.03695711  0.51356385  0.08863387     0.15900
C796        C  0.05985606  0.51849865  0.07522642     0.21700
C797        C  0.08373712  0.52133397  0.08884300    -0.34500
C798        C  0.08271108  0.51834824  0.11638107     0.15800
O799        O  0.06343400  0.50910246  0.15500187    -0.26500
C800        C  0.08900839  0.51264876  0.15845394     0.05600
C801        C  0.10198313  0.51858100  0.13507803    -0.31400
O802        O  0.05642510  0.51864094  0.04938264    -0.23300
C803        C  0.03087656  0.51414854  0.04629603    -0.03200
C804        C  0.01792606  0.51087061  0.07009923    -0.17700
H805        H  0.01794113  0.50569327  0.12609486     0.20300
H806        H  0.10194725  0.52488985  0.07863388     0.18700
H807        H  0.12273017  0.52163283  0.13216912     0.18600
H808        H  0.99760871  0.50577889  0.07317236     0.14500
C809        C  0.42686519  0.47967074  0.62225092     0.29900
C810        C  0.42490510  0.47061395  0.59617770    -0.36400
C811        C  0.44549214  0.47752424  0.57929095     0.15900
C812        C  0.46645724  0.49247722  0.58750925     0.21700
C813        C  0.46851604  0.50134431  0.61361415    -0.34500
C814        C  0.44803108  0.49429514  0.63052791     0.15800
O815        O  0.40940721  0.47633819  0.64104068    -0.26500
C816        C  0.41959369  0.48878704  0.66172717     0.05600
C817        C  0.44365468  0.50029329  0.65633422    -0.31400
O818        O  0.48286577  0.49769200  0.56823500    -0.23300
C819        C  0.47242155  0.48581937  0.54737795    -0.03200
C820        C  0.44920822  0.47280948  0.55309505    -0.17700
H821        H  0.40826873  0.45933650  0.58942420     0.20300
H822        H  0.48476694  0.51329040  0.62017264     0.18700
H823        H  0.45573219  0.51202567  0.66929970     0.18600
H824        H  0.43660118  0.46211247  0.53977125     0.14500
C825        C  0.46991100  0.50955613  0.90966666     0.29900
C826        C  0.47352173  0.50568384  0.88244381    -0.36400
C827        C  0.45178379  0.51095780  0.86620578     0.15900
C828        C  0.42818363  0.51963424  0.87612629     0.21700
C829        C  0.42465755  0.52371343  0.90329290    -0.34500
C830        C  0.44629008  0.51823485  0.91952110     0.15800
O831        O  0.48720738  0.50476481  0.92844527    -0.26500
C832        C  0.47452706  0.51034402  0.95071324     0.05600
C833        C  0.44898448  0.51891643  0.94628996    -0.31400
O834        O  0.40997104  0.52172550  0.85776636    -0.23300
C835        C  0.42189246  0.51429750  0.83562170    -0.03200
C836        C  0.44804923  0.50748803  0.83971552    -0.17700
H837        H  0.49180335  0.49836819  0.87454169     0.20300
H838        H  0.40604461  0.52998731  0.91131191     0.18700
H839        H  0.43445211  0.52455537  0.96070110     0.18600
H840        H  0.46188134  0.49985542  0.82550706     0.14500
C841        C  0.87765064  0.57347937  0.98273600     0.29900
C842        C  0.90451698  0.57801278  0.97909160    -0.36400
C843        C  0.92116288  0.55647786  0.98330944     0.15900
C844        C  0.91194336  0.53211215  0.99055931     0.21700
C845        C  0.88499618  0.52752406  0.99409945    -0.34500
C846        C  0.86829898  0.54915948  0.99001289     0.15800
O847        O  0.85897509  0.59126146  0.98105105    -0.26500
C848        C  0.83722331  0.57842640  0.98744570     0.05600
C849        C  0.84176754  0.55201607  0.99314551    -0.31400
O850        O  0.93102895  0.51500375  0.99428063    -0.23300
C851        C  0.95277565  0.52844476  0.98912597    -0.03200
C852        C  0.94781828  0.55446304  0.98230933    -0.17700
H853        H  0.91196140  0.59719449  0.97386294     0.20300
H854        H  0.87764087  0.50855763  0.00015765     0.18700
H855        H  0.82778946  0.53737852  0.99941149     0.18600
H856        H  0.96179980  0.56970071  0.97769270     0.14500
C857        C  0.63229223  0.55779574  0.01315437     0.29900
C858        C  0.61848234  0.53393167  0.01454423    -0.36400
C859        C  0.59097536  0.53583215  0.01479235     0.15900
C860        C  0.57786039  0.55952425  0.01353258     0.21700
C861        C  0.59164505  0.58339120  0.01270357    -0.34500
C862        C  0.61912333  0.58150963  0.01270715     0.15800
O863        O  0.65801242  0.56065134  0.01118938    -0.26500
C864        C  0.66135151  0.58660999  0.00988166     0.05600
C865        C  0.63781765  0.60046812  0.01091714    -0.31400
O866        O  0.55216944  0.55661185  0.01182598    -0.23300
C867        C  0.54861966  0.53065909  0.01237327    -0.03200
C868        C  0.57217486  0.51685494  0.01428987    -0.17700
H869        H  0.62846339  0.51513260  0.01469498     0.20300
H870        H  0.58164301  0.60212453  0.01140140     0.18700
H871        H  0.63489334  0.62150224  0.00954050     0.18600
H872        H  0.57507074  0.49577024  0.01379997     0.14500
C873        C  0.07119904  0.48343782  0.37542237     0.29900
C874        C  0.07534553  0.47878071  0.40235058    -0.36400
C875        C  0.05426326  0.48441332  0.41913521     0.15900
C876        C  0.03058569  0.49366288  0.40994123     0.21700
C877        C  0.02643479  0.49831228  0.38296093    -0.34500
C878        C  0.04766776  0.49298371  0.36616502     0.15800
O879        O  0.08873117  0.48071332  0.35663774    -0.26500
C880        C  0.07653550  0.48871258  0.33490112     0.05600
C881        C  0.05079975  0.49657104  0.33961204    -0.31400
O882        O  0.01374402  0.49816467  0.42910447    -0.23300
C883        C  0.02678668  0.49187668  0.45091191    -0.03200
C884        C  0.05216690  0.48322402  0.44591661    -0.17700
H885        H  0.09396200  0.47180940  0.40975616     0.20300
H886        H  0.00809409  0.50608926  0.37565838     0.18700
H887        H  0.03678406  0.50442878  0.32573024     0.18600
H888        H  0.06692881  0.47726253  0.45995631     0.14500
C889        C  0.62247521  0.42111537  0.48129040     0.29900
C890        C  0.59578858  0.41800696  0.47483828    -0.36400
C891        C  0.57909407  0.43919390  0.48119091     0.15900
C892        C  0.58813483  0.46178913  0.49313333     0.21700
C893        C  0.61470171  0.46482577  0.49965220    -0.34500
C894        C  0.63136572  0.44377674  0.49319323     0.15800
O895        O  0.64140708  0.40364294  0.47773714    -0.26500
C896        C  0.66278865  0.41532836  0.48729906     0.05600
C897        C  0.65761640  0.44034943  0.49720930    -0.31400
O898        O  0.56928513  0.47895856  0.49781351    -0.23300
C899        C  0.54773350  0.46741578  0.48872643    -0.03200
C900        C  0.55260064  0.44252303  0.47821644    -0.17700
H901        H  0.58852176  0.40022799  0.46570370     0.20300
H902        H  0.62186857  0.48238560  0.50928817     0.18700
H903        H  0.67108342  0.45372374  0.50673578     0.18600
H904        H  0.53862752  0.42880807  0.47003200     0.14500
C905        C  0.92009861  0.45049660  0.51949690     0.29900
C906        C  0.90518401  0.42943472  0.52923043    -0.36400
C907        C  0.87911083  0.42783525  0.52034490     0.15900
C908        C  0.86823574  0.44593349  0.50337471     0.21700
C909        C  0.88308602  0.46708222  0.49378977    -0.34500
C910        C  0.90922976  0.46847567  0.50238012     0.15800
O911        O  0.94530157  0.45486287  0.52387575    -0.26500
C912        C  0.95059309  0.47592925  0.50932140     0.05600
C913        C  0.92889872  0.48517922  0.49558960    -0.31400
O914        O  0.84382802  0.44008649  0.49681181    -0.23300
C915        C  0.83894201  0.41781628  0.50964184    -0.03200
C916        C  0.86028317  0.40930807  0.52452041    -0.17700
H917        H  0.91355349  0.41483392  0.54220710     0.20300
H918        H  0.87503728  0.48107446  0.47996467     0.18700
H919        H  0.92803417  0.50145013  0.48195298     0.18600
H920        H  0.86183041  0.39170257  0.53632242     0.14500
C921        C  0.77001890  0.82415638  0.62285210     0.29900
C922        C  0.77451407  0.82725506  0.64999757    -0.36400
C923        C  0.76762336  0.80596700  0.66615529     0.15900
C924        C  0.75702218  0.78308740  0.65629795     0.21700
C925        C  0.75257510  0.77992952  0.62907291    -0.34500
C926        C  0.75951333  0.80127365  0.61287262     0.15800
O927        O  0.77366951  0.84220589  0.60455600    -0.26500
C928        C  0.76556562  0.83087060  0.58233250     0.05600
C929        C  0.75661440  0.80527398  0.58635871    -0.31400
O930        O  0.75157675  0.76592475  0.67505477    -0.23300
C931        C  0.75873595  0.77795544  0.69729993    -0.03200
C932        C  0.76893019  0.80292099  0.69285399    -0.17700
H933        H  0.78240606  0.84528562  0.65804783     0.20300
H934        H  0.74392032  0.76221541  0.62111664     0.18700
H935        H  0.74792729  0.79209966  0.57209860     0.18600
H936        H  0.77621746  0.81682468  0.70719634     0.14500
C937        C  0.74318977  0.69579137  0.88061572     0.29900
C938        C  0.74688203  0.71949833  0.86681464    -0.36400
C939        C  0.74323841  0.71846423  0.83933370     0.15900
C940        C  0.73657121  0.69566183  0.82623374     0.21700
C941        C  0.73251159  0.67211011  0.84005543    -0.34500
C942        C  0.73599083  0.67318075  0.86748860     0.15800
O943        O  0.74669677  0.69186650  0.90618301    -0.26500
C944        C  0.74137025  0.66640381  0.90950971     0.05600
C945        C  0.73452760  0.65395410  0.88605151    -0.31400
O946        O  0.73555853  0.69875792  0.80038742    -0.23300
C947        C  0.74128815  0.72404157  0.79677379    -0.03200
C948        C  0.74628461  0.73718636  0.82036089    -0.17700
H949        H  0.75270849  0.73740671  0.87673341     0.20300
H950        H  0.72748343  0.65402180  0.83004274     0.18700
H951        H  0.72996850  0.63340925  0.88299471     0.18600
H952        H  0.75212429  0.75746599  0.82299469     0.14500
C953        C  0.73474683  0.18966805  0.17297557     0.29900
C954        C  0.73211444  0.16549317  0.15955496    -0.36400
C955        C  0.73298114  0.16647486  0.13183706     0.15900
C956        C  0.73661473  0.18960401  0.11826412     0.21700
C957        C  0.73898704  0.21374361  0.13165394    -0.34500
C958        C  0.73772818  0.21279919  0.15926854     0.15800
O959        O  0.73563830  0.19327612  0.19881614    -0.26500
C960        C  0.73882010  0.21918627  0.20172697     0.05600
C961        C  0.74023694  0.23217982  0.17769377    -0.31400
O962        O  0.73835869  0.18589956  0.09253543    -0.23300
C963        C  0.73541263  0.16002964  0.08933203    -0.03200
C964        C  0.73191641  0.14699517  0.11319298    -0.17700
H965        H  0.72997050  0.14712822  0.17000110     0.20300
H966        H  0.74204577  0.23200769  0.12125726     0.18700
H967        H  0.74380423  0.25286336  0.17433247     0.18600
H968        H  0.73002600  0.12606318  0.11640089     0.14500
C969        C  0.76040726  0.28117018  0.33813647     0.29900
C970        C  0.75673923  0.27679321  0.36526057    -0.36400
C971        C  0.75902305  0.29897525  0.38174895     0.15900
C972        C  0.76475107  0.32357965  0.37203697     0.21700
C973        C  0.76832913  0.32792030  0.34504531    -0.34500
C974        C  0.76591237  0.30588824  0.32863732     0.15800
O975        O  0.75812680  0.26360926  0.31908657    -0.26500
C976        C  0.76216820  0.27725468  0.29708825     0.05600
C977        C  0.76723560  0.30368925  0.30192721    -0.31400
O978        O  0.76582297  0.34164600  0.39057439    -0.23300
C979        C  0.76059835  0.32874174  0.41266244    -0.03200
C980        C  0.75608942  0.30201281  0.40842342    -0.17700
H981        H  0.75204854  0.25754240  0.37290027     0.20300
H982        H  0.77238269  0.34728904  0.33732831     0.18700
H983        H  0.77081383  0.31915054  0.28785453     0.18600
H984        H  0.75129779  0.28713954  0.42278377     0.14500
C985        C  0.71548963  0.42751291  0.38370313     0.29900
C986        C  0.70396018  0.42314165  0.35944267    -0.36400
C987        C  0.70037061  0.44523516  0.34403190     0.15900
C988        C  0.70781919  0.47020753  0.35162318     0.21700
C989        C  0.72042804  0.47450605  0.37589324    -0.34500
C990        C  0.72378706  0.45208984  0.39170245     0.15800
O991        O  0.71778176  0.40973097  0.40189573    -0.26500
C992        C  0.72783042  0.42262456  0.42205938     0.05600
C993        C  0.73249826  0.44911851  0.41699262    -0.31400
O994        O  0.69808841  0.48835007  0.33585279    -0.23300
C995        C  0.68455563  0.47442477  0.31829663    -0.03200
C996        C  0.68544227  0.44767382  0.32247078    -0.17700
H997        H  0.69650467  0.40403827  0.35379423     0.20300
H998        H  0.72544075  0.49401548  0.38272654     0.18700
H999        H  0.74030061  0.46392920  0.43011433     0.18600
H1000       H  0.67387923  0.43249639  0.31320292     0.14500
C1001       C  0.71293692  0.54602419  0.09826963     0.29900
C1002       C  0.71795623  0.53124369  0.12108456    -0.36400
C1003       C  0.69762912  0.53080406  0.13964912     0.15900
C1004       C  0.67423178  0.54379980  0.13552177     0.21700
C1005       C  0.66898890  0.55770221  0.11271377    -0.34500
C1006       C  0.68910219  0.55834020  0.09451871     0.15800
O1007       O  0.73019309  0.55302753  0.08038649    -0.26500
C1008       C  0.71693157  0.56986203  0.06540326     0.05600
C1009       C  0.69128582  0.57357539  0.07309126    -0.31400
O1010       O  0.65818411  0.54189825  0.15522840    -0.23300
C1011       C  0.67104304  0.52739513  0.17246841    -0.03200
C1012       C  0.69584257  0.51969023  0.16404926    -0.17700
H1013       H  0.73673113  0.52204370  0.12470919     0.20300
H1014       H  0.65085816  0.56841835  0.10994362     0.18700
H1015       H  0.67730800  0.58787582  0.06587250     0.18600
H1016       H  0.70996662  0.50735103  0.17401791     0.14500
C1017       C  0.55337595  0.49509884  0.13539262     0.29900
C1018       C  0.53400452  0.50707791  0.11968051    -0.36400
C1019       C  0.53341526  0.49960162  0.09296893     0.15900
C1020       C  0.55055917  0.48143553  0.08240654     0.21700
C1021       C  0.56998907  0.46961693  0.09806900    -0.34500
C1022       C  0.57067687  0.47718548  0.12469789     0.15800
O1023       O  0.55832214  0.50005640  0.16052862    -0.26500
C1024       C  0.57912172  0.48509792  0.16604303     0.05600
C1025       C  0.58758954  0.47055043  0.14438912    -0.31400
O1026       O  0.54664909  0.47744058  0.05694450    -0.23300
C1027       C  0.52681309  0.49342263  0.05099032    -0.03200
C1028       C  0.51785882  0.50768705  0.07264630    -0.17700
H1029       H  0.52059046  0.52155050  0.12761939     0.20300
H1030       H  0.58389472  0.45571646  0.08995830     0.18700
H1031       H  0.60452448  0.45778390  0.14306330     0.18600
H1032       H  0.50215290  0.52199013  0.07323007     0.14500
C1033       C  0.53346674  0.50628238  0.40978672     0.29900
C1034       C  0.53058613  0.50265941  0.38251427    -0.36400
C1035       C  0.55253838  0.50849671  0.36698526     0.15900
C1036       C  0.57569835  0.51753230  0.37755570     0.21700
C1037       C  0.57854694  0.52125829  0.40485295    -0.34500
C1038       C  0.55664800  0.51517644  0.42042679     0.15800
O1039       O  0.51578217  0.50097940  0.42791123    -0.26500
C1040       C  0.52768197  0.50647524  0.45057705     0.05600
C1041       C  0.55320944  0.51539696  0.44711950    -0.31400
O1042       O  0.59413741  0.52044233  0.35959219    -0.23300
C1043       C  0.58272455  0.51311060  0.33716986    -0.03200
C1044       C  0.55678297  0.50552708  0.34061519    -0.17700
H1045       H  0.51265377  0.49516082  0.37404783     0.20300
H1046       H  0.59680628  0.52778325  0.41341410     0.18700
H1047       H  0.56723998  0.52088077  0.46207524     0.18600
H1048       H  0.54337603  0.49791865  0.32599959     0.14500
C1049       C  0.68005207  0.37453303  0.26702745     0.29900
C1050       C  0.67671071  0.34769669  0.27289001    -0.36400
C1051       C  0.69743435  0.33080473  0.26598337     0.15900
C1052       C  0.71994823  0.33976715  0.25413431     0.21700
C1053       C  0.72327233  0.36663275  0.24822339    -0.34500
C1054       C  0.70249774  0.38355263  0.25510385     0.15800
O1055       O  0.66274542  0.39344668  0.27100946    -0.26500
C1056       C  0.67406967  0.41506039  0.26156788     0.05600
C1057       C  0.69892665  0.41006253  0.25138277    -0.31400
O1058       O  0.73666392  0.32054412  0.24899584    -0.23300
C1059       C  0.72480151  0.29892033  0.25770167    -0.03200
C1060       C  0.70024077  0.30411862  0.26839210    -0.17700
H1061       H  0.65898963  0.34044076  0.28192450     0.20300
H1062       H  0.74073832  0.37379220  0.23863552     0.18700
H1063       H  0.71204749  0.42374114  0.24191532     0.18600
H1064       H  0.68644587  0.29023281  0.27649728     0.14500
C1065       C  0.73340901  0.80894629  0.32431588     0.29900
C1066       C  0.73143058  0.83308395  0.33787735    -0.36400
C1067       C  0.73397095  0.83201478  0.36547055     0.15900
C1068       C  0.73861818  0.80888522  0.37880259     0.21700
C1069       C  0.74012565  0.78477134  0.36529320    -0.34500
C1070       C  0.73712768  0.78577033  0.33782578     0.15800
O1071       O  0.73315363  0.80540369  0.29846560    -0.26500
C1072       C  0.73617631  0.77948008  0.29542709     0.05600
C1073       C  0.73864821  0.76640477  0.31930601    -0.31400
O1074       O  0.74168603  0.81251816  0.40442517    -0.23300
C1075       C  0.73853963  0.83833075  0.40774278    -0.03200
C1076       C  0.73355937  0.85138577  0.38415093    -0.17700
H1077       H  0.72857018  0.85147379  0.32761391     0.20300
H1078       H  0.74380501  0.76647364  0.37547051     0.18700
H1079       H  0.74252484  0.74571540  0.32242872     0.18600
H1080       H  0.73072455  0.87226043  0.38116243     0.14500
C1081       C  0.76116608  0.69411065  0.11659600     0.29900
C1082       C  0.75821144  0.71767896  0.13094825    -0.36400
C1083       C  0.76078717  0.71583809  0.15848825     0.15900
C1084       C  0.76551175  0.69238868  0.17120801     0.21700
C1085       C  0.76879910  0.66891616  0.15685869    -0.34500
C1086       C  0.76660782  0.67082198  0.12932239     0.15800
O1087       O  0.75864131  0.69101318  0.09077204    -0.26500
C1088       C  0.76289992  0.66538229  0.08685330     0.05600
C1089       C  0.76800767  0.65201472  0.11021334    -0.31400
O1090       O  0.76555370  0.69492414  0.19716691    -0.23300
C1091       C  0.76119475  0.72048421  0.20120163    -0.03200
C1092       C  0.75821945  0.73436928  0.17778682    -0.17700
H1093       H  0.75380550  0.73613736  0.12135660     0.20300
H1094       H  0.77240079  0.65032725  0.16652084     0.18700
H1095       H  0.77138639  0.63116693  0.11281955     0.18600
H1096       H  0.75367944  0.75503551  0.17545013     0.14500
C1097       C  0.69324754  0.67156928  0.23247563     0.29900
C1098       C  0.66993406  0.65787529  0.22712068    -0.36400
C1099       C  0.67095763  0.63035581  0.23004816     0.15900
C1100       C  0.69329726  0.61726833  0.23795355     0.21700
C1101       C  0.71657078  0.63092106  0.24312658    -0.34500
C1102       C  0.71561107  0.65830356  0.23998701     0.15800
O1103       O  0.69662349  0.69736696  0.23186245    -0.26500
C1104       C  0.72159577  0.70051794  0.23874373     0.05600
C1105       C  0.73424596  0.67689859  0.24411554    -0.31400
O1106       O  0.68957316  0.59175324  0.24094562    -0.23300
C1107       C  0.66454949  0.58823260  0.23462408    -0.03200
C1108       C  0.65201360  0.61160170  0.22759903    -0.17700
H1109       H  0.65214017  0.66798903  0.22149265     0.20300
H1110       H  0.73413059  0.62091530  0.24962301     0.18700
H1111       H  0.75416264  0.67399804  0.25077570     0.18600
H1112       H  0.63160530  0.61450113  0.22265609     0.14500
C1113       C  0.20293609  0.03418681  0.65184358     0.29900
C1114       C  0.21643588  0.02900764  0.62829933    -0.36400
C1115       C  0.21721140  0.04979938  0.61022651     0.15900
C1116       C  0.20583254  0.07388708  0.61546679     0.21700
C1117       C  0.19338691  0.07937319  0.63912741    -0.34500
C1118       C  0.19228142  0.05869358  0.65682479     0.15800
O1119       O  0.19505370  0.01651863  0.66900222    -0.26500
C1120       C  0.17926339  0.03009793  0.68481078     0.05600
C1121       C  0.17721592  0.05642979  0.67837557    -0.31400
O1122       O  0.20725966  0.09006562  0.59572381    -0.23300
C1123       C  0.21985566  0.07653866  0.57738175    -0.03200
C1124       C  0.22678094  0.05125085  0.58515974    -0.17700
H1125       H  0.22408746  0.00969511  0.62364747     0.20300
H1126       H  0.18369272  0.09798773  0.64275001     0.18700
H1127       H  0.16366513  0.07089540  0.68612201     0.18600
H1128       H  0.23743811  0.03644150  0.57420591     0.14500
C1129       C  0.57777768  0.38058205  0.21925361     0.29900
C1130       C  0.58287945  0.35649622  0.20741811    -0.36400
C1131       C  0.56123624  0.34066520  0.20331479     0.15900
C1132       C  0.53620766  0.34765708  0.21093888     0.21700
C1133       C  0.53121667  0.37167769  0.22368553    -0.34500
C1134       C  0.55299898  0.38798390  0.22725838     0.15800
O1135       O  0.59478114  0.39941971  0.22151864    -0.26500
C1136       C  0.58106402  0.41930910  0.23115293     0.05600
C1137       C  0.55487653  0.41350134  0.23555611    -0.31400
O1138       O  0.51846586  0.33194860  0.20078180    -0.23300
C1139       C  0.53251367  0.31513911  0.18654846    -0.03200
C1140       C  0.55911518  0.31956598  0.18746255    -0.17700
H1141       H  0.60206106  0.35146253  0.19987017     0.20300
H1142       H  0.51155768  0.37809930  0.22838072     0.18700
H1143       H  0.53950383  0.42636933  0.24261588     0.18600
H1144       H  0.57425807  0.31092056  0.17542061     0.14500
C1145       C  0.64183341  0.19546717  0.03247321     0.29900
C1146       C  0.62757241  0.21909524  0.03399953    -0.36400
C1147       C  0.60265723  0.21724327  0.04555932     0.15900
C1148       C  0.59268241  0.19372583  0.05464127     0.21700
C1149       C  0.60660847  0.17030481  0.05269356    -0.34500
C1150       C  0.63139585  0.17226284  0.04170470     0.15800
O1151       O  0.66599518  0.19239033  0.02371706    -0.26500
C1152       C  0.67079257  0.16701393  0.02796833     0.05600
C1153       C  0.64996754  0.15368307  0.03907818    -0.31400
O1154       O  0.57132964  0.19671536  0.06843263    -0.23300
C1155       C  0.56710332  0.22235150  0.06806634    -0.03200
C1156       C  0.58572749  0.23630549  0.05388682    -0.17700
H1157       H  0.63576594  0.23765070  0.02789160     0.20300
H1158       H  0.59927761  0.15210912  0.06075738     0.18700
H1159       H  0.64858944  0.13307884  0.04415324     0.18600
H1160       H  0.58835147  0.25737524  0.05300889     0.14500
C1161       C  0.49228059  0.36952214  0.05825372     0.29900
C1162       C  0.49668161  0.38298533  0.03453263    -0.36400
C1163       C  0.49370493  0.41050996  0.03531155     0.15900
C1164       C  0.48702067  0.42402042  0.05787351     0.21700
C1165       C  0.48254719  0.41054719  0.08157291    -0.34500
C1166       C  0.48531101  0.38297919  0.08076200     0.15800
O1167       O  0.49499577  0.34391471  0.06226554    -0.26500
C1168       C  0.48947878  0.34079575  0.08769370     0.05600
C1169       C  0.48323135  0.36449234  0.10008758    -0.31400
O1170       O  0.48607917  0.44981996  0.05428549    -0.23300
C1171       C  0.49183828  0.45287128  0.02892610    -0.03200
C1172       C  0.49707019  0.42906968  0.01633035    -0.17700
H1173       H  0.50236993  0.37274543  0.01675387     0.20300
H1174       H  0.47755324  0.42086957  0.09950492     0.18700
H1175       H  0.47879243  0.36774196  0.12063215     0.18600
H1176       H  0.50323513  0.42600729  0.99621143     0.14500
C1177       C  0.66229206  0.25123088  0.21617279     0.29900
C1178       C  0.63669348  0.24115379  0.21668511    -0.36400
C1179       C  0.61951118  0.25069852  0.19734032     0.15900
C1180       C  0.62710802  0.26871187  0.17864118     0.21700
C1181       C  0.65254937  0.27914814  0.17846756    -0.34500
C1182       C  0.66966949  0.26977989  0.19791079     0.15800
O1183       O  0.68186797  0.24406060  0.23150117    -0.26500
C1184       C  0.70197933  0.25836529  0.22311108     0.05600
C1185       C  0.69552297  0.27488905  0.20238710    -0.31400
O1186       O  0.60842515  0.27373555  0.16142141    -0.23300
C1187       C  0.58838126  0.25909691  0.16937941    -0.03200
C1188       C  0.59414047  0.24440622  0.19172069    -0.17700
H1189       H  0.63076142  0.22647219  0.23081123     0.20300
H1190       H  0.65874335  0.29316870  0.16380121     0.18700
H1191       H  0.70824507  0.28802370  0.19168714     0.18600
H1192       H  0.58175276  0.23042649  0.20174157     0.14500
C1193       C  0.62553613  0.07120210  0.98243009     0.29900
C1194       C  0.59838487  0.07556081  0.98068060    -0.36400
C1195       C  0.58219661  0.05394982  0.98600532     0.15900
C1196       C  0.59205966  0.02956112  0.99243507     0.21700
C1197       C  0.61932703  0.02521628  0.99441657    -0.34500
C1198       C  0.63558624  0.04698023  0.98923718     0.15800
O1199       O  0.64389708  0.08911161  0.97931687    -0.26500
C1200       C  0.66626423  0.07651442  0.98424877     0.05600
C1201       C  0.66229735  0.05010015  0.99057258    -0.31400
O1202       O  0.57329592  0.01218255  0.99669721    -0.23300
C1203       C  0.55105615  0.02562820  0.99317391     0.04000
C1204       C  0.55549849  0.05177876  0.98648491    -0.17700
H1205       H  0.59040803  0.09468107  0.97587072     0.20300
H1206       H  0.62728215  0.00627957  0.99994210     0.18700
H1207       H  0.67679109  0.03567486  0.99635291     0.18600
H1208       H  0.54115490  0.06695966  0.98257193     0.14500
C1209       C  0.50023953  0.13319099  0.05547035     0.29900
C1210       C  0.48672391  0.11537663  0.03917820    -0.36400
C1211       C  0.49808601  0.09028396  0.03606542     0.15900
C1212       C  0.52134722  0.08313273  0.04786326     0.21700
C1213       C  0.53478431  0.10091274  0.06427692    -0.34500
C1214       C  0.52325399  0.12591744  0.06766251     0.15800
O1215       O  0.49249237  0.15721030  0.06217265    -0.26500
C1216       C  0.51071058  0.16545812  0.07906811     0.05600
C1217       C  0.53021812  0.14668833  0.08324061    -0.31400
O1218       O  0.52817650  0.05847354  0.04252913    -0.23300
C1219       C  0.50887011  0.04963769  0.02724298    -0.03200
C1220       C  0.48967490  0.06862237  0.02267730    -0.17700
H1221       H  0.46830530  0.12052399  0.02999239     0.20300
H1222       H  0.55273380  0.09545933  0.07417420     0.18700
H1223       H  0.54669660  0.14788093  0.09655838     0.18600
H1224       H  0.47192131  0.06657329  0.01123963     0.14500
C1225       C  0.71286564  0.03828761  0.84321050     0.29900
C1226       C  0.72765226  0.03343193  0.86601963    -0.36400
C1227       C  0.73094948  0.05499826  0.88296185     0.15900
C1228       C  0.72120082  0.07963483  0.87701984     0.21700
C1229       C  0.70771817  0.08474849  0.85386522    -0.34500
C1230       C  0.70344164  0.06317160  0.83770033     0.15800
O1231       O  0.70190536  0.02022276  0.82824832    -0.26500
C1232       C  0.68519213  0.03385219  0.81354270     0.05600
C1233       C  0.68543799  0.06055501  0.81850038    -0.31400
O1234       O  0.72257944  0.09595312  0.89675093    -0.23300
C1235       C  0.73327213  0.08192301  0.91581701    -0.03200
C1236       C  0.73946943  0.05629097  0.90844836    -0.17700
H1237       H  0.73354362  0.01375789  0.87155016     0.20300
H1238       H  0.69854545  0.10360960  0.85023523     0.18700
H1239       H  0.67183838  0.07533904  0.81164761     0.18600
H1240       H  0.74737165  0.04065855  0.92048311     0.14500
C1241       C  0.69954529  0.96646658  0.64870494     0.29900
C1242       C  0.71229298  0.97129303  0.62470074    -0.36400
C1243       C  0.71297949  0.95005559  0.60696934     0.15900
C1244       C  0.70188642  0.92603502  0.61274732     0.21700
C1245       C  0.68982185  0.92110619  0.63666458    -0.34500
C1246       C  0.68924683  0.94202909  0.65421296     0.15800
O1247       O  0.69276367  0.98415802  0.66647457    -0.26500
C1248       C  0.67816779  0.97054713  0.68327683     0.05600
C1249       C  0.67579496  0.94425011  0.67680621    -0.31400
O1250       O  0.70442775  0.90888363  0.59380277    -0.23300
C1251       C  0.71750179  0.92171054  0.57547066    -0.03200
C1252       C  0.72340938  0.94756153  0.58235691    -0.17700
H1253       H  0.72009760  0.99041177  0.61979705     0.20300
H1254       H  0.68072856  0.90240885  0.64096396     0.18700
H1255       H  0.66298850  0.92975031  0.68545655     0.18600
H1256       H  0.73455992  0.96187387  0.57139446     0.14500
C1257       C  0.69390628  0.82928215  0.73276022     0.29900
C1258       C  0.67079156  0.84360035  0.72804468    -0.36400
C1259       C  0.67178563  0.87078475  0.73324491     0.15900
C1260       C  0.69388946  0.88315766  0.74266492     0.21700
C1261       C  0.71700921  0.86881676  0.74741300    -0.34500
C1262       C  0.71607393  0.84165817  0.74201704     0.15800
O1263       O  0.69717018  0.80356428  0.72995875    -0.26500
C1264       C  0.72189583  0.79942331  0.73726945     0.05600
C1265       C  0.73445528  0.82242210  0.74508580    -0.31400
O1266       O  0.69013971  0.90865054  0.74685727    -0.23300
C1267       C  0.66528712  0.91270231  0.73986118    -0.03200
C1268       C  0.65302356  0.88978385  0.73126163    -0.17700
H1269       H  0.65314632  0.83416349  0.72105093     0.20300
H1270       H  0.73446587  0.87812892  0.75503381     0.18700
H1271       H  0.75410683  0.82445370  0.75276196     0.18600
H1272       H  0.63292583  0.88738444  0.72499621     0.14500
C1273       C  0.55760074  0.98205982  0.92494468     0.29900
C1274       C  0.58054940  0.97694575  0.91053925    -0.36400
C1275       C  0.57938612  0.98178425  0.88334227     0.15900
C1276       C  0.55723729  0.99125211  0.87104132     0.21700
C1277       C  0.53416149  0.99613248  0.88539689    -0.34500
C1278       C  0.53527922  0.99106616  0.91258844     0.15800
O1279       O  0.55471142  0.97997291  0.95074434    -0.26500
C1280       C  0.53002167  0.98732415  0.95497285     0.05600
C1281       C  0.51709530  0.99450773  0.93193116    -0.31400
O1282       O  0.56106005  0.99583844  0.84570071    -0.23300
C1283       C  0.58599590  0.98906824  0.84166530    -0.03200
C1284       C  0.59821608  0.98003130  0.86440575    -0.17700
H1285       H  0.59829751  0.97014747  0.91997667     0.20300
H1286       H  0.51670017  0.00383699  0.87611713     0.18700
H1287       H  0.49738257  0.00208463  0.92994362     0.18600
H1288       H  0.61840610  0.97401504  0.86683297     0.14500
C1289       C  0.52106449  0.63698710  0.30510360     0.29900
C1290       C  0.52086955  0.60950167  0.30447217    -0.36400
C1291       C  0.54056008  0.59779316  0.28946574     0.15900
C1292       C  0.55909977  0.61231271  0.27613342     0.21700
C1293       C  0.55888275  0.63974464  0.27619864    -0.34500
C1294       C  0.53921613  0.65142708  0.29115921     0.15800
O1295       O  0.50749928  0.65162281  0.32134199    -0.26500
C1296       C  0.51678108  0.67558862  0.31737605     0.05600
C1297       C  0.53642002  0.67684229  0.29876660    -0.31400
O1298       O  0.57770926  0.59762261  0.26632184    -0.23300
C1299       C  0.57078927  0.57349203  0.27305141    -0.03200
C1300       C  0.54779568  0.57212251  0.28732952    -0.17700
H1301       H  0.50753727  0.59809833  0.31636556     0.20300
H1302       H  0.57409987  0.65111101  0.26680491     0.18700
H1303       H  0.54885739  0.69334072  0.29400935     0.18600
H1304       H  0.53899934  0.55510062  0.29644975     0.14500
C1305       C  0.62021318  0.78432605  0.41994616     0.29900
C1306       C  0.64269141  0.79869856  0.41481171    -0.36400
C1307       C  0.66033612  0.80065555  0.43544240     0.15900
C1308       C  0.65649904  0.78889891  0.45956684     0.21700
C1309       C  0.63414827  0.77353384  0.46442326    -0.34500
C1310       C  0.61601975  0.77199511  0.44369778     0.15800
O1311       O  0.60029573  0.78256915  0.40405342    -0.26500
C1312       C  0.58283924  0.76887837  0.41741241     0.05600
C1313       C  0.59142707  0.76141490  0.44229143    -0.31400
O1314       O  0.67308677  0.79768502  0.47739058    -0.23300
C1315       C  0.68733634  0.81515663  0.46429053    -0.03200
C1316       C  0.68040047  0.81754354  0.43816243    -0.17700
H1317       H  0.64526085  0.80935204  0.39660548     0.20300
H1318       H  0.63020758  0.76520718  0.48355343     0.18700
H1319       H  0.58104089  0.75035899  0.45709911     0.18600
H1320       H  0.68663192  0.83228885  0.42423598     0.14500
C1321       C  0.48442918  0.61898380  0.42474199     0.29900
C1322       C  0.47825452  0.59220436  0.42143743    -0.36400
C1323       C  0.48299530  0.57576943  0.44311121     0.15900
C1324       C  0.49298459  0.58511711  0.46650571     0.21700
C1325       C  0.49916102  0.61190263  0.46981120    -0.34500
C1326       C  0.49460622  0.62831548  0.44805902     0.15800
O1327       O  0.48229286  0.63755231  0.40675749    -0.26500
C1328       C  0.49130578  0.65917142  0.41854239     0.05600
C1329       C  0.49929652  0.65456245  0.44432422    -0.31400
O1330       O  0.49681018  0.56621081  0.48385578    -0.23300
C1331       C  0.48922739  0.54437875  0.47148854    -0.03200
C1332       C  0.48039040  0.54915438  0.44603779    -0.17700
H1333       H  0.47073091  0.58462149  0.40304451     0.20300
H1334       H  0.50744518  0.61933249  0.48793660     0.18700
H1335       H  0.50766422  0.66841703  0.45812474     0.18600
H1336       H  0.47371813  0.53501653  0.43161285     0.14500
C1337       C  0.66419310  0.72621381  0.29104272     0.29900
C1338       C  0.64601022  0.71095791  0.30519058    -0.36400
C1339       C  0.62085531  0.72200269  0.30877939     0.15900
C1340       C  0.61383316  0.74614862  0.29866849     0.21700
C1341       C  0.63197043  0.76131660  0.28450661    -0.34500
C1342       C  0.65721904  0.75057723  0.28146159     0.15800
O1343       O  0.68904241  0.72022963  0.28605620    -0.26500
C1344       C  0.69818436  0.74129275  0.27343759     0.05600
C1345       C  0.67917919  0.76069889  0.27016091    -0.31400
O1346       O  0.59004874  0.75365878  0.30602313    -0.23300
C1347       C  0.58158779  0.73418187  0.32128761    -0.03200
C1348       C  0.60002863  0.71398098  0.32362260    -0.17700
H1349       H  0.65135366  0.69216758  0.31358331     0.20300
H1350       H  0.62703327  0.78066516  0.27719926     0.18700
H1351       H  0.68127740  0.77952453  0.26054396     0.18600
H1352       H  0.59889219  0.69668805  0.33591420     0.14500
C1353       C  0.57482213  0.93873088  0.51741932     0.29900
C1354       C  0.58855125  0.91477486  0.51964599    -0.36400
C1355       C  0.61602820  0.91617975  0.51791990     0.15900
C1356       C  0.62908991  0.93952806  0.51395578     0.21700
C1357       C  0.61539319  0.96345936  0.51186116    -0.34500
C1358       C  0.58797741  0.96207235  0.51384102     0.15800
O1359       O  0.54906836  0.94185945  0.51728652    -0.26500
C1360       C  0.54559111  0.96764324  0.51390714     0.05600
C1361       C  0.56922039  0.98107749  0.51152162    -0.31400
O1362       O  0.65465373  0.93619992  0.51153744    -0.23300
C1363       C  0.65819147  0.91038251  0.51430572    -0.03200
C1364       C  0.63480025  0.89694482  0.51836965    -0.17700
H1365       H  0.57848121  0.89625949  0.52208171     0.20300
H1366       H  0.62540310  0.98186313  0.50843228     0.18700
H1367       H  0.57208365  0.00175336  0.50746993     0.18600
H1368       H  0.63196077  0.87596390  0.52026702     0.14500
C1369       C  0.40686930  0.02625830  0.48956721     0.29900
C1370       C  0.37967313  0.02212801  0.49241537    -0.36400
C1371       C  0.36338385  0.04438230  0.48944245     0.15900
C1372       C  0.37331071  0.06884349  0.48359906     0.21700
C1373       C  0.40040028  0.07292771  0.48065156    -0.34500
C1374       C  0.41664336  0.05084093  0.48401112     0.15800
O1375       O  0.42568340  0.00867145  0.49319221    -0.26500
C1376       C  0.44788283  0.02214130  0.49011945     0.05600
C1377       C  0.44335301  0.04850816  0.48420702    -0.31400
O1378       O  0.35496417  0.08714251  0.48259679    -0.23300
C1379       C  0.33276297  0.07456153  0.48806958    -0.03200
C1380       C  0.33680962  0.04776609  0.49251724    -0.17700
H1381       H  0.37183667  0.00304598  0.49740435     0.20300
H1382       H  0.40833389  0.09223390  0.47677082     0.18700
H1383       H  0.45764869  0.06388024  0.48131712     0.18600
H1384       H  0.32244101  0.03311751  0.49778585     0.14500
C1385       C  0.55046630  0.00810999  0.63505378     0.29900
C1386       C  0.52726563  0.00303538  0.62095378    -0.36400
C1387       C  0.52850919  0.00632955  0.59347055     0.15900
C1388       C  0.55105738  0.01385038  0.58066487     0.21700
C1389       C  0.57409064  0.01918311  0.59474521    -0.34500
C1390       C  0.57277773  0.01614142  0.62215601     0.15800
O1391       O  0.55425756  0.00510969  0.66069703    -0.26500
C1392       C  0.57930832  0.01160403  0.66421688     0.05600
C1393       C  0.59160921  0.01870423  0.64087889    -0.31400
O1394       O  0.54830152  0.01431881  0.55480529    -0.23300
C1395       C  0.52353159  0.00725756  0.55088118    -0.03200
C1396       C  0.51029276  0.00215927  0.57426010    -0.17700
H1397       H  0.50962276  0.99648013  0.63064677     0.20300
H1398       H  0.59200004  0.02482671  0.58494583     0.18700
H1399       H  0.61190922  0.02399591  0.63798428     0.18600
H1400       H  0.49038803  0.99536057  0.57660135     0.14500
C1401       C  0.51023022  0.90515707  0.47011674     0.29900
C1402       C  0.50853821  0.87774293  0.47377677    -0.36400
C1403       C  0.51276268  0.86201504  0.45134563     0.15900
C1404       C  0.51841601  0.87263145  0.42710282     0.21700
C1405       C  0.52014069  0.89994672  0.42349535    -0.34500
C1406       C  0.51582663  0.91562278  0.44581430     0.15800
O1407       O  0.50586877  0.92355425  0.48800548    -0.26500
C1408       C  0.50870081  0.94613466  0.47501080     0.05600
C1409       C  0.51501295  0.94231482  0.44867096    -0.31400
O1410       O  0.52058069  0.85460169  0.40854724    -0.23300
C1411       C  0.51629605  0.83196638  0.42087107    -0.03200
C1412       C  0.51125180  0.83536222  0.44761204    -0.17700
H1413       H  0.50370647  0.86930785  0.49264817     0.20300
H1414       H  0.52401299  0.90842594  0.40441559     0.18700
H1415       H  0.51808827  0.95703373  0.43369639     0.18600
H1416       H  0.50625272  0.82051161  0.46192267     0.14500
C1417       C  0.45424451  0.89625885  0.28246083     0.29900
C1418       C  0.46497738  0.87112198  0.27801735    -0.36400
C1419       C  0.46773380  0.85518438  0.30038714     0.15900
C1420       C  0.46053579  0.86371540  0.32513623     0.21700
C1421       C  0.45053080  0.88874979  0.32961141    -0.34500
C1422       C  0.44766814  0.90441315  0.30749638     0.15800
O1423       O  0.44570438  0.91276370  0.26438818    -0.26500
C1424       C  0.43376651  0.93147187  0.27831669     0.05600
C1425       C  0.43451565  0.92720700  0.30510163    -0.31400
O1426       O  0.46322442  0.84564306  0.34310087    -0.23300
C1427       C  0.47240609  0.82507124  0.33003478    -0.03200
C1428       C  0.47584889  0.82970628  0.30329247    -0.17700
H1429       H  0.46939670  0.86399130  0.25846375     0.20300
H1430       H  0.44408545  0.89507549  0.34888340     0.18700
H1431       H  0.42365921  0.93722671  0.32030873     0.18600
H1432       H  0.48318861  0.81639155  0.28838737     0.14500
C1433       C  0.42565215  0.11497220  0.20864077     0.29900
C1434       C  0.42032422  0.13848569  0.19593169    -0.36400
C1435       C  0.44107061  0.15586799  0.19430250     0.15900
C1436       C  0.46551522  0.15075919  0.20477730     0.21700
C1437       C  0.47059339  0.12733261  0.21854114    -0.34500
C1438       C  0.44968411  0.10952651  0.21980798     0.15800
O1439       O  0.40929917  0.09551697  0.21045116    -0.26500
C1440       C  0.42259523  0.07712848  0.22309794     0.05600
C1441       C  0.44797182  0.08457105  0.22968459    -0.31400
O1442       O  0.48311293  0.16771068  0.19652893    -0.23300
C1443       C  0.46950592  0.18338941  0.18066658    -0.03200
C1444       C  0.44328781  0.17720095  0.17891486    -0.17700
H1445       H  0.40172679  0.14219566  0.18640922     0.20300
H1446       H  0.48985044  0.12257020  0.22603450     0.18700
H1447       H  0.46267525  0.07347207  0.24024338     0.18600
H1448       H  0.42879311  0.18509212  0.16555390     0.14500
C1449       C  0.30040614  0.02458452  0.35899882     0.29900
C1450       C  0.27650598  0.02755625  0.37233506    -0.36400
C1451       C  0.27814915  0.03745110  0.39812984     0.15900
C1452       C  0.30172570  0.04372949  0.40987818     0.21700
C1453       C  0.32546705  0.03997615  0.39696190    -0.34500
C1454       C  0.32374429  0.03064285  0.37126368     0.15800
O1455       O  0.30364500  0.01826028  0.33394783    -0.26500
C1456       C  0.32931748  0.02086215  0.33043890     0.05600
C1457       C  0.34263786  0.02831273  0.35300303    -0.31400
O1458       O  0.29882428  0.05737527  0.43157716    -0.23300
C1459       C  0.27312566  0.05953423  0.43426977    -0.03200
C1460       C  0.25915793  0.04726290  0.41424727    -0.17700
H1461       H  0.25792863  0.02421160  0.36270365     0.20300
H1462       H  0.34387245  0.04605143  0.40556387     0.18700
H1463       H  0.36337746  0.03193682  0.35546112     0.18600
H1464       H  0.23843535  0.04884070  0.41013529     0.14500
C1465       C  0.46654470  0.01149681  0.09010034     0.29900
C1466       C  0.46943067  0.00734753  0.11727447    -0.36400
C1467       C  0.44722117  0.01216934  0.13287789     0.15900
C1468       C  0.42378933  0.02079331  0.12251871     0.21700
C1469       C  0.42100947  0.02527613  0.09531294    -0.34500
C1470       C  0.44315994  0.02011797  0.07963276     0.15800
O1471       O  0.48424558  0.00641695  0.07186301    -0.26500
C1472       C  0.47212287  0.01165415  0.04927059     0.05600
C1473       C  0.44652098  0.02047362  0.05291683    -0.31400
O1474       O  0.40506995  0.02228683  0.14047256    -0.23300
C1475       C  0.41662139  0.01450270  0.16268978    -0.03200
C1476       C  0.44290492  0.00807202  0.15905784    -0.17700
H1477       H  0.48749174  0.99991438  0.12556874     0.20300
H1478       H  0.40255304  0.03138913  0.08683151     0.18700
H1479       H  0.43229954  0.02573961  0.03807085     0.18600
H1480       H  0.45652205  0.00031843  0.17339588     0.14500
C1481       C  0.46688803  0.99188912  0.41229950     0.29900
C1482       C  0.46972193  0.00108722  0.38637391    -0.36400
C1483       C  0.45014236  0.99363143  0.36842697     0.15900
C1484       C  0.42918503  0.97826447  0.37566474     0.21700
C1485       C  0.42646265  0.96888236  0.40152291    -0.34500
C1486       C  0.44606721  0.97627064  0.41943115     0.15800
O1487       O  0.48231156  0.99742405  0.43236626    -0.26500
C1488       C  0.47140702  0.98507808  0.45264348     0.05600
C1489       C  0.44875619  0.97155742  0.44578868    -0.31400
O1490       O  0.41240224  0.97483373  0.35626541    -0.23300
C1491       C  0.42270582  0.98792490  0.33610529    -0.03200
C1492       C  0.44630426  0.00001514  0.34252690    -0.17700
H1493       H  0.48581588  0.01364708  0.38072990     0.20300
H1494       H  0.40987876  0.95710124  0.40739546     0.18700
H1495       H  0.43585860  0.96054539  0.45848497     0.18600
H1496       H  0.45826213  0.01252427  0.33028608     0.14500
C1497       C  0.61324431  0.29373713  0.57511788     0.29900
C1498       C  0.63498308  0.30926549  0.58037857    -0.36400
C1499       C  0.65426498  0.30922992  0.56119494     0.15900
C1500       C  0.65242892  0.29499820  0.53812805     0.21700
C1501       C  0.63069038  0.27874310  0.53310939    -0.34500
C1502       C  0.61111014  0.27880356  0.55254072     0.15800
O1503       O  0.59310764  0.29139909  0.59063879    -0.26500
C1504       C  0.57756968  0.27460849  0.57829699     0.05600
C1505       C  0.58757470  0.26599971  0.55427390    -0.31400
O1506       O  0.67094766  0.30144037  0.52128081    -0.23300
C1507       C  0.68445404  0.31987159  0.53401400    -0.03200
C1508       C  0.67523408  0.32504804  0.55903556    -0.17700
H1509       H  0.63630897  0.32133851  0.59787598     0.20300
H1510       H  0.62866274  0.26782814  0.51495068     0.18700
H1511       H  0.57932561  0.25179470  0.54076995     0.18600
H1512       H  0.68113999  0.34057899  0.57235693     0.14500
C1513       C  0.52141169  0.13831461  0.70098657     0.29900
C1514       C  0.52793412  0.12625838  0.72486666    -0.36400
C1515       C  0.53786079  0.10055431  0.72295516     0.15900
C1516       C  0.54066284  0.08753662  0.69919519     0.21700
C1517       C  0.53257082  0.09888997  0.67569557    -0.34500
C1518       C  0.52348721  0.12467571  0.67754251     0.15800
O1519       O  0.51676831  0.16364143  0.69739257    -0.26500
C1520       C  0.51634139  0.16590568  0.67137740     0.05600
C1521       C  0.51997695  0.14231536  0.65819095    -0.31400
O1522       O  0.55592165  0.06680306  0.70083458    -0.23300
C1523       C  0.56252943  0.06617661  0.72595576    -0.03200
C1524       C  0.55155608  0.08627784  0.74084470    -0.17700
H1525       H  0.52802278  0.13707795  0.74320356     0.20300
H1526       H  0.53613463  0.08947285  0.65692468     0.18700
H1527       H  0.52155058  0.13899746  0.63721793     0.18600
H1528       H  0.55606849  0.09159128  0.76094993     0.14500
C1529       C  0.34963075  0.19914052  0.52902457     0.29900
C1530       C  0.37319193  0.21240905  0.52373827    -0.36400
C1531       C  0.38982201  0.21614073  0.54542833     0.15900
C1532       C  0.38311940  0.20761991  0.57025748     0.21700
C1533       C  0.35966422  0.19511537  0.57560212    -0.34500
C1534       C  0.34350636  0.19107988  0.55416883     0.15800
O1535       O  0.33304747  0.18975237  0.51153988    -0.26500
C1536       C  0.31656394  0.17567211  0.52599895     0.05600
C1537       C  0.32212032  0.17587043  0.55252272    -0.31400
O1538       O  0.40171097  0.21086169  0.58733197    -0.23300
C1539       C  0.42089483  0.22167177  0.57374893    -0.03200
C1540       C  0.41477812  0.22584403  0.54741583    -0.17700
H1541       H  0.37883180  0.21787482  0.50401435     0.20300
H1542       H  0.35510843  0.18754206  0.59491610     0.18700
H1543       H  0.31346115  0.16418065  0.56793730     0.18600
H1544       H  0.42695271  0.23405300  0.53213279     0.14500
C1545       C  0.45484927  0.39673233  0.71555771     0.29900
C1546       C  0.46486843  0.37150348  0.72091347    -0.36400
C1547       C  0.46572448  0.35415327  0.69941017     0.15900
C1548       C  0.45713952  0.36145146  0.67475348     0.21700
C1549       C  0.44788210  0.38651090  0.66932995    -0.34500
C1550       C  0.44725178  0.40368891  0.69047758     0.15800
O1551       O  0.44775926  0.41451975  0.73303545    -0.26500
C1552       C  0.43574608  0.43277082  0.71866877     0.05600
C1553       C  0.43531690  0.42720686  0.69212189    -0.31400
O1554       O  0.45923805  0.34270846  0.65745553    -0.23300
C1555       C  0.46972389  0.32300283  0.67071838    -0.03200
C1556       C  0.47417533  0.32868647  0.69712334    -0.17700
H1557       H  0.47042675  0.36550734  0.74052699     0.20300
H1558       H  0.44074622  0.39194436  0.65005058     0.18700
H1559       H  0.42410961  0.43683662  0.67690554     0.18600
H1560       H  0.48313646  0.31639430  0.71195336     0.14500
C1561       C  0.51984441  0.37090291  0.57056008     0.29900
C1562       C  0.52656054  0.39765309  0.57337659    -0.36400
C1563       C  0.51876754  0.41453253  0.55289476     0.15900
C1564       C  0.50541357  0.40557361  0.53109483     0.21700
C1565       C  0.49877864  0.37886952  0.52826090    -0.34500
C1566       C  0.50650124  0.36203052  0.54873308     0.15800
O1567       O  0.52368885  0.35210275  0.58806663    -0.26500
C1568       C  0.51280587  0.33077275  0.57734709     0.05600
C1569       C  0.50186691  0.33583825  0.55277239    -0.31400
O1570       O  0.49944005  0.42466534  0.51459104    -0.23300
C1571       C  0.50901413  0.44627866  0.52584030    -0.03200
C1572       C  0.52124245  0.44120579  0.54980472    -0.17700
H1573       H  0.53663337  0.40489826  0.59063708     0.20300
H1574       H  0.48786045  0.37179701  0.51145115     0.18700
H1575       H  0.49083290  0.32254858  0.54038986     0.18600
H1576       H  0.53030105  0.45514432  0.56305743     0.14500
C1577       C  0.49460320  0.08551288  0.53263339     0.29900
C1578       C  0.50550686  0.11087259  0.53180362    -0.36400
C1579       C  0.49451881  0.12968266  0.54884761     0.15900
C1580       C  0.47426518  0.12387217  0.56572668     0.21700
C1581       C  0.46291552  0.09862346  0.56610004    -0.34500
C1582       C  0.47388798  0.07979041  0.54898223     0.15800
O1583       O  0.50284127  0.06474795  0.51935133    -0.26500
C1584       C  0.48714985  0.04537043  0.52706151     0.05600
C1585       C  0.46861879  0.05358735  0.54542869    -0.31400
O1586       O  0.46888398  0.14357907  0.58189681    -0.23300
C1587       C  0.48561294  0.16248166  0.57506002    -0.03200
C1588       C  0.50188278  0.15493766  0.55440925    -0.17700
H1589       H  0.52202582  0.11539637  0.51932460     0.20300
H1590       H  0.44725864  0.09373620  0.57950752     0.18700
H1591       H  0.45381230  0.04187354  0.55501095     0.18600
H1592       H  0.51812671  0.16572491  0.54613549     0.14500
C1593       C  0.26051402  0.19596917  0.61557394     0.29900
C1594       C  0.25801830  0.21978946  0.62960476    -0.36400
C1595       C  0.25902564  0.21804717  0.65726172     0.15900
C1596       C  0.26231483  0.19455618  0.67033866     0.21700
C1597       C  0.26513754  0.17084711  0.65634769    -0.34500
C1598       C  0.26420100  0.17258740  0.62875243     0.15800
O1599       O  0.25851825  0.19263315  0.58971526    -0.26500
C1600       C  0.26126639  0.16672438  0.58631235     0.05600
C1601       C  0.26500620  0.15347051  0.60998114    -0.31400
O1602       O  0.26168845  0.19732338  0.69624789    -0.23300
C1603       C  0.25821477  0.22304894  0.69995724    -0.03200
C1604       C  0.25620499  0.23677572  0.67632279    -0.17700
H1605       H  0.25489533  0.23833670  0.61969338     0.20300
H1606       H  0.26737270  0.15219998  0.66630558     0.18700
H1607       H  0.26685358  0.13248777  0.61300389     0.18600
H1608       H  0.25261979  0.25758519  0.67364974     0.14500
C1609       C  0.21670653  0.16102603  0.73928286     0.29900
C1610       C  0.22108885  0.13362242  0.74114962    -0.36400
C1611       C  0.19875898  0.11737294  0.73970300     0.15900
C1612       C  0.17396927  0.12753603  0.73619600     0.21700
C1613       C  0.16964447  0.15480737  0.73422209    -0.34500
C1614       C  0.19182325  0.17099108  0.73605635     0.15800
O1615       O  0.23446919  0.17985308  0.74142982    -0.26500
C1616       C  0.22083599  0.20226622  0.73961289     0.05600
C1617       C  0.19413142  0.19780590  0.73623249    -0.31400
O1618       O  0.15572280  0.10920371  0.73629775    -0.23300
C1619       C  0.16868024  0.08675525  0.74015935    -0.03200
C1620       C  0.19566269  0.09062670  0.74238599    -0.17700
H1621       H  0.24048579  0.12558288  0.74421251     0.20300
H1622       H  0.15015945  0.16290482  0.73208898     0.18700
H1623       H  0.17860484  0.21219716  0.73457462     0.18600
H1624       H  0.21066346  0.07601101  0.74600502     0.14500
C1625       C  0.30832840  0.38278605  0.75597864     0.29900
C1626       C  0.28474607  0.36974745  0.75013636    -0.36400
C1627       C  0.28440263  0.34243359  0.75454067     0.15900
C1628       C  0.30587858  0.32877874  0.76374134     0.21700
C1629       C  0.32944812  0.34182602  0.76955358    -0.34500
C1630       C  0.32971348  0.36917907  0.76544347     0.15800
O1631       O  0.31312335  0.40815887  0.75295383    -0.26500
C1632       C  0.33788152  0.41097294  0.76078954     0.05600
C1633       C  0.34915769  0.38730893  0.76873471    -0.31400
O1634       O  0.30152602  0.30319682  0.76559023    -0.23300
C1635       C  0.27681530  0.30037841  0.75771142    -0.03200
C1636       C  0.26522919  0.32417045  0.75061643    -0.17700
H1637       H  0.26787552  0.38015291  0.74252986     0.20300
H1638       H  0.34649044  0.33133185  0.77663667     0.18700
H1639       H  0.36901209  0.38387025  0.77533435     0.18600
H1640       H  0.24572374  0.32735563  0.74293803     0.14500
C1641       C  0.32743997  0.26419519  0.69293549     0.29900
C1642       C  0.34163055  0.26720679  0.66945464    -0.36400
C1643       C  0.36900063  0.26423830  0.67124386     0.15900
C1644       C  0.38169407  0.25837674  0.69443628     0.21700
C1645       C  0.36747368  0.25559103  0.71798991    -0.34500
C1646       C  0.34009460  0.25878235  0.71624613     0.15800
O1647       O  0.30165032  0.26517974  0.69557864    -0.26500
C1648       C  0.29760436  0.26051287  0.72101820     0.05600
C1649       C  0.32089442  0.25641359  0.73475127    -0.31400
O1650       O  0.40733622  0.25520734  0.69126286    -0.23300
C1651       C  0.41119873  0.25948592  0.66569010    -0.03200
C1652       C  0.38795011  0.26520946  0.65241498    -0.17700
H1653       H  0.33196508  0.27119469  0.65095784     0.20300
H1654       H  0.37703954  0.25083143  0.73635823     0.18700
H1655       H  0.32321089  0.25155260  0.75531511     0.18600
H1656       H  0.38529267  0.26866600  0.63160616     0.14500
C1657       C  0.28874573  0.45758241  0.90096907     0.29900
C1658       C  0.28343432  0.47027135  0.87703637    -0.36400
C1659       C  0.30415098  0.47065720  0.85899950     0.15900
C1660       C  0.32823137  0.45967517  0.86466554     0.21700
C1661       C  0.33384219  0.44812401  0.88865870    -0.34500
C1662       C  0.31326409  0.44736521  0.90631829     0.15800
O1663       O  0.27122443  0.44982425  0.91821134    -0.26500
C1664       C  0.28492450  0.43462974  0.93443195     0.05600
C1665       C  0.31115360  0.43272663  0.92815932    -0.31400
O1666       O  0.34432328  0.46043787  0.84495371    -0.23300
C1667       C  0.33078541  0.47222555  0.82622432    -0.03200
C1668       C  0.30553794  0.47930681  0.83363048    -0.17700
H1669       H  0.26410625  0.47747242  0.87210359     0.20300
H1670       H  0.35246465  0.43869629  0.89254743     0.18700
H1671       H  0.32560895  0.41933739  0.93609716     0.18600
H1672       H  0.29076791  0.48949650  0.82228065     0.14500
C1673       C  0.20864256  0.42567826  0.11422788     0.29900
C1674       C  0.19587424  0.41987167  0.13752315    -0.36400
C1675       C  0.19648301  0.43940663  0.15653726     0.15900
C1676       C  0.20850920  0.46340166  0.15292522     0.21700
C1677       C  0.22230976  0.46888585  0.12963146    -0.34500
C1678       C  0.22182076  0.44899753  0.11039194     0.15800
O1679       O  0.20958161  0.41010152  0.09394432    -0.26500
C1680       C  0.22382138  0.42307657  0.07663576     0.05600
C1681       C  0.23218177  0.44757644  0.08559450    -0.31400
O1682       O  0.20168430  0.48054763  0.17120100    -0.23300
C1683       C  0.18539815  0.46702162  0.18643320    -0.03200
C1684       C  0.18205010  0.44122664  0.17851010    -0.17700
H1685       H  0.18507240  0.40178648  0.14013251     0.20300
H1686       H  0.23139083  0.48775070  0.12617320     0.18700
H1687       H  0.24458317  0.46166573  0.07575796     0.18600
H1688       H  0.16761065  0.42726887  0.18530674     0.14500
C1689       C  0.38740388  0.29380597  0.07484918     0.29900
C1690       C  0.36342105  0.30554162  0.07998084    -0.36400
C1691       C  0.34640728  0.30685969  0.05883342     0.15900
C1692       C  0.35242439  0.29727302  0.03412971     0.21700
C1693       C  0.37640243  0.28455431  0.02920840    -0.34500
C1694       C  0.39369371  0.28333073  0.05059964     0.15800
O1695       O  0.40642524  0.29207473  0.09171318    -0.26500
C1696       C  0.42532091  0.28013256  0.07851461     0.05600
C1697       C  0.41869961  0.27391780  0.05272793    -0.31400
O1698       O  0.33540392  0.30512127  0.01633065    -0.23300
C1699       C  0.31859878  0.31964605  0.03011415    -0.03200
C1700       C  0.32431529  0.32105692  0.05660684    -0.17700
H1701       H  0.35894116  0.31439247  0.09882998     0.20300
H1702       H  0.38179576  0.27763687  0.00982533     0.18700
H1703       H  0.43032020  0.26381721  0.03806072     0.18600
H1704       H  0.31562427  0.33374651  0.07132840     0.14500
C1705       C  0.08089100  0.44712172  0.01407389     0.29900
C1706       C  0.09538221  0.42437255  0.02009942    -0.36400
C1707       C  0.12250310  0.42553710  0.01538758     0.15900
C1708       C  0.13466641  0.44740692  0.00514294     0.21700
C1709       C  0.12015646  0.47016940  0.99911497    -0.34500
C1710       C  0.09307496  0.46913136  0.00414375     0.15800
O1711       O  0.05523060  0.45023125  0.01643230    -0.26500
C1712       C  0.05096974  0.47474221  0.00823206     0.05600
C1713       C  0.07380365  0.48731269  0.00030251    -0.31400
O1714       O  0.16015952  0.44380579  0.00160042    -0.23300
C1715       C  0.16442575  0.41932617  0.00995016    -0.03200
C1716       C  0.14163372  0.40713118  0.01867906    -0.17700
H1717       H  0.08614463  0.40689804  0.02778831     0.20300
H1718       H  0.12930907  0.48747002  0.99092325     0.18700
H1719       H  0.07573373  0.50688146  0.99223664     0.18600
H1720       H  0.13938228  0.38722055  0.02574758     0.14500
C1721       C  0.41258091  0.46855809  0.99297876     0.29900
C1722       C  0.38580210  0.47197706  0.99878932    -0.36400
C1723       C  0.36937608  0.45037097  0.99361545     0.15900
C1724       C  0.37874286  0.42711580  0.98323863     0.21700
C1725       C  0.40542634  0.42384554  0.97710566    -0.34500
C1726       C  0.42183610  0.44535217  0.98242047     0.15800
O1727       O  0.43153656  0.48558127  0.99764563    -0.26500
C1728       C  0.45328833  0.47321970  0.98993236     0.05600
C1729       C  0.44836943  0.44814237  0.98006879    -0.31400
O1730       O  0.36039530  0.40897525  0.98124413    -0.23300
C1731       C  0.33881163  0.42056521  0.99045585    -0.03200
C1732       C  0.34322939  0.44647215  0.99835537    -0.17700
H1733       H  0.37841728  0.48998472  0.00743861     0.20300
H1734       H  0.41299541  0.40549627  0.96940026     0.18700
H1735       H  0.46226906  0.43387928  0.97268044     0.18600
H1736       H  0.32942878  0.46010578  0.00708268     0.14500
C1737       C  0.24363007  0.30790590  0.88069162     0.29900
C1738       C  0.24872035  0.28483612  0.86624001    -0.36400
C1739       C  0.24346822  0.28588166  0.83909874     0.15900
C1740       C  0.23418366  0.30817348  0.82678504     0.21700
C1741       C  0.22889459  0.33119208  0.84127937    -0.34500
C1742       C  0.23384811  0.33004052  0.86849057     0.15800
O1743       O  0.24799408  0.31162883  0.90611821    -0.26500
C1744       C  0.24069325  0.33647220  0.91034845     0.05600
C1745       C  0.23164807  0.34876131  0.88761069    -0.31400
O1746       O  0.23179469  0.30505490  0.80100185    -0.23300
C1747       C  0.23926303  0.28024626  0.79683534    -0.03200
C1748       C  0.24672022  0.26748837  0.81983745    -0.17700
H1749       H  0.25656339  0.26735009  0.87545418     0.20300
H1750       H  0.22173876  0.34889810  0.83195129     0.18700
H1751       H  0.22524058  0.36892489  0.88533929     0.18600
H1752       H  0.25424096  0.24767634  0.82186298     0.14500
C1753       C  0.21564934  0.33718736  0.24113750     0.29900
C1754       C  0.21931970  0.36439038  0.24514114    -0.36400
C1755       C  0.19715794  0.38053791  0.24152578     0.15900
C1756       C  0.17319023  0.37053675  0.23413498     0.21700
C1757       C  0.16955983  0.34341298  0.23015080    -0.34500
C1758       C  0.19155947  0.32728231  0.23406853     0.15800
O1759       O  0.23333713  0.31843764  0.24438696    -0.26500
C1760       C  0.22041312  0.29619193  0.23941507     0.05600
C1761       C  0.19429862  0.30055335  0.23293749    -0.31400
O1762       O  0.15487416  0.38883740  0.23270707    -0.23300
C1763       C  0.16702378  0.41099487  0.23948017    -0.03200
C1764       C  0.19346389  0.40703514  0.24514044    -0.17700
H1765       H  0.23799754  0.37233138  0.25121946     0.20300
H1766       H  0.15066979  0.33536369  0.22491640     0.18700
H1767       H  0.17942239  0.28609351  0.22852314     0.18600
H1768       H  0.20766694  0.42143095  0.25155213     0.14500
C1769       C  0.23430047  0.18831112  0.32490679     0.29900
C1770       C  0.23216187  0.16433515  0.33855843    -0.36400
C1771       C  0.23393140  0.16572812  0.36618767     0.15900
C1772       C  0.23797873  0.18902294  0.37951005     0.21700
C1773       C  0.23988977  0.21297399  0.36587233    -0.34500
C1774       C  0.23772127  0.21163592  0.33831768     0.15800
O1775       O  0.23411387  0.19156638  0.29904936    -0.26500
C1776       C  0.23710547  0.21743025  0.29580547     0.05600
C1777       C  0.23938826  0.23077204  0.31965452    -0.31400
O1778       O  0.24003399  0.18568862  0.40525998    -0.23300
C1779       C  0.23687288  0.15990341  0.40861942    -0.03200
C1780       C  0.23294408  0.14656875  0.38494461    -0.17700
H1781       H  0.22955855  0.14583819  0.32834510     0.20300
H1782       H  0.24310078  0.23140838  0.37603788     0.18700
H1783       H  0.24288220  0.25154212  0.32269920     0.18600
H1784       H  0.23039883  0.12565647  0.38196890     0.14500
C1785       C  0.38204466  0.24078290  0.19687527     0.29900
C1786       C  0.36724935  0.24303427  0.22014908    -0.36400
C1787       C  0.33989716  0.24013785  0.21759809     0.15900
C1788       C  0.32776641  0.23555032  0.19380395     0.21700
C1789       C  0.34254224  0.23303519  0.17062598    -0.34500
C1790       C  0.36985568  0.23570054  0.17321520     0.15800
O1791       O  0.40779881  0.24367398  0.19439734    -0.26500
C1792       C  0.41214966  0.24007312  0.16876508     0.05600
C1793       C  0.38917972  0.23500769  0.15482776    -0.31400
O1794       O  0.30188903  0.23470715  0.19576986    -0.23300
C1795       C  0.29731523  0.23839074  0.22131302    -0.03200
C1796       C  0.32027900  0.24200749  0.23570547    -0.17700
H1797       H  0.37636628  0.24713697  0.23891230     0.20300
H1798       H  0.33335559  0.22960207  0.15176528     0.18700
H1799       H  0.38696926  0.23198747  0.13388108     0.18600
H1800       H  0.32211500  0.24619923  0.25648686     0.14500
C1801       C  0.30349498  0.16878546  0.26263026     0.29900
C1802       C  0.32678249  0.15512865  0.26782999    -0.36400
C1803       C  0.32548481  0.12763565  0.26598275     0.15900
C1804       C  0.30296211  0.11432534  0.25917704     0.21700
C1805       C  0.27960964  0.12801909  0.25400599    -0.34500
C1806       C  0.28086208  0.15556085  0.25604012     0.15800
O1807       O  0.30035354  0.19456457  0.26298477    -0.26500
C1808       C  0.27531038  0.19794331  0.25669423     0.05600
C1809       C  0.26230562  0.17436421  0.25197806    -0.31400
O1810       O  0.30666158  0.08860660  0.25739567    -0.23300
C1811       C  0.33183069  0.08547537  0.26347992    -0.03200
C1812       C  0.34440169  0.10910558  0.26900576    -0.17700
H1813       H  0.34474390  0.16524589  0.27275443     0.20300
H1814       H  0.26179932  0.11795066  0.24847768     0.18700
H1815       H  0.24210825  0.17159957  0.24620607     0.18600
H1816       H  0.36488043  0.11225636  0.27345874     0.14500
C1817       C  0.25446065  0.28097687  0.15916863     0.29900
C1818       C  0.24847686  0.27815958  0.13222214    -0.36400
C1819       C  0.25485566  0.29952272  0.11586442     0.15900
C1820       C  0.26639651  0.32204996  0.12546786     0.21700
C1821       C  0.27241174  0.32483887  0.15236930    -0.34500
C1822       C  0.26595699  0.30355560  0.16871043     0.15800
O1823       O  0.24948039  0.26380758  0.17798695    -0.26500
C1824       C  0.25781471  0.27549007  0.19996439     0.05600
C1825       C  0.26830224  0.30030169  0.19534777    -0.31400
O1826       O  0.26982772  0.33998826  0.10705649    -0.23300
C1827       C  0.26046507  0.32897962  0.08515226    -0.03200
C1828       C  0.25085988  0.30370029  0.08949225    -0.17700
H1829       H  0.23909657  0.26066989  0.12461051     0.20300
H1830       H  0.28112201  0.34261610  0.16010568     0.18700
H1831       H  0.27614534  0.31403146  0.20956452     0.18600
H1832       H  0.24155849  0.29067916  0.07548518     0.14500
C1833       C  0.88215180  0.28879019  0.42331066     0.29900
C1834       C  0.85787662  0.30002596  0.41844419    -0.36400
C1835       C  0.84088480  0.30069535  0.43966168     0.15900
C1836       C  0.84706686  0.29060398  0.46409614     0.21700
C1837       C  0.87118446  0.27803280  0.46857036    -0.34500
C1838       C  0.88859397  0.27790151  0.44728022     0.15800
O1839       O  0.90156060  0.28865987  0.40677166    -0.26500
C1840       C  0.92086331  0.27740683  0.41996526     0.05600
C1841       C  0.91411966  0.27006131  0.44536447    -0.31400
O1842       O  0.83097344  0.29918973  0.48245236    -0.23300
C1843       C  0.81472901  0.31491502  0.46941273    -0.03200
C1844       C  0.81972650  0.31610716  0.44276238    -0.17700
H1845       H  0.85343558  0.30968182  0.40003079     0.20300
H1846       H  0.87688538  0.27113603  0.48784788     0.18700
H1847       H  0.92608428  0.26036688  0.45999819     0.18600
H1848       H  0.81205621  0.32996905  0.42864076     0.14500
C1849       C  0.14930802  0.20526904  0.46498346     0.29900
C1850       C  0.12582009  0.21877921  0.47035311    -0.36400
C1851       C  0.10917762  0.22259794  0.44872570     0.15900
C1852       C  0.11574860  0.21387141  0.42387020     0.21700
C1853       C  0.13912990  0.20106270  0.41845244    -0.34500
C1854       C  0.15537761  0.19700842  0.43983121     0.15800
O1855       O  0.16576254  0.19569172  0.48244820    -0.26500
C1856       C  0.18216937  0.18130553  0.46802414     0.05600
C1857       C  0.17669387  0.18150233  0.44148442    -0.31400
O1858       O  0.09720061  0.21748362  0.40681114    -0.23300
C1859       C  0.07826113  0.22881897  0.42045434    -0.03200
C1860       C  0.08439391  0.23281210  0.44681098    -0.17700
H1861       H  0.12025839  0.22440712  0.49009428     0.20300
H1862       H  0.14359648  0.19335960  0.39910970     0.18700
H1863       H  0.18524186  0.16953577  0.42610737     0.18600
H1864       H  0.07234904  0.24129495  0.46213359     0.14500
C1865       C  0.04150708  0.39843299  0.27483135     0.29900
C1866       C  0.03177568  0.37300570  0.27019448    -0.36400
C1867       C  0.02473004  0.35876737  0.29266514     0.15900
C1868       C  0.02663659  0.36937065  0.31762415     0.21700
C1869       C  0.03520096  0.39485816  0.32212266    -0.34500
C1870       C  0.04287926  0.40863243  0.29998384     0.15800
O1871       O  0.05444333  0.41295252  0.25786799    -0.26500
C1872       C  0.06409207  0.43229129  0.27259436     0.05600
C1873       C  0.05748780  0.43057754  0.29879224    -0.31400
O1874       O  0.02320025  0.35201868  0.33603106    -0.23300
C1875       C  0.01891261  0.32990802  0.32304253    -0.03200
C1876       C  0.01907415  0.33270614  0.29588943    -0.17700
H1877       H  0.03213566  0.36410518  0.25085945     0.20300
H1878       H  0.03823464  0.40242281  0.34179857     0.18700
H1879       H  0.06506190  0.44175262  0.31512346     0.18600
H1880       H  0.01731731  0.31757423  0.28100825     0.14500
C1881       C  0.98648850  0.36917756  0.44500798     0.29900
C1882       C  0.98890320  0.38339854  0.46867809    -0.36400
C1883       C  0.98708310  0.41100141  0.46684068     0.15900
C1884       C  0.98345027  0.42393422  0.44332891     0.21700
C1885       C  0.98044716  0.40970788  0.41974254    -0.34500
C1886       C  0.98196579  0.38208297  0.42163001     0.15800
O1887       O  0.98914749  0.34334682  0.44187611    -0.26500
C1888       C  0.98580924  0.33956102  0.41612827     0.05600
C1889       C  0.98115209  0.36303520  0.40272262    -0.31400
O1890       O  0.98434598  0.44989856  0.44594663    -0.23300
C1891       C  0.98818815  0.45368116  0.47161983    -0.03200
C1892       C  0.98991119  0.43012766  0.48546811    -0.17700
H1893       H  0.99263281  0.37366886  0.48719150     0.20300
H1894       H  0.97778483  0.41950767  0.40107814     0.18700
H1895       H  0.97875809  0.36577546  0.38176801     0.18600
H1896       H  0.99386894  0.42754341  0.50619310     0.14500
C1897       C  0.84093604  0.24501894  0.28129199     0.29900
C1898       C  0.86742327  0.25224835  0.27879572    -0.36400
C1899       C  0.88422145  0.24443689  0.29928793     0.15900
C1900       C  0.87544472  0.23073345  0.32088207     0.21700
C1901       C  0.84898235  0.22358739  0.32339812    -0.34500
C1902       C  0.83224803  0.23114096  0.30281023     0.15800
O1903       O  0.82182681  0.25053064  0.26464803    -0.26500
C1904       C  0.80060735  0.23988173  0.27550602     0.05600
C1905       C  0.80592681  0.22762082  0.29933691    -0.31400
O1906       O  0.89412757  0.22653456  0.33833752    -0.23300
C1907       C  0.91533225  0.23747048  0.32781040    -0.03200
C1908       C  0.91032106  0.24888042  0.30343267    -0.17700
H1909       H  0.87440122  0.26338501  0.26213690     0.20300
H1910       H  0.84187119  0.21308355  0.34040769     0.18700
H1911       H  0.79230361  0.21793637  0.31235542     0.18600
H1912       H  0.92362790  0.25995798  0.29121779     0.14500
C1913       C  0.12256492  0.26976382  0.31711161     0.29900
C1914       C  0.14824638  0.27978965  0.31748554    -0.36400
C1915       C  0.16605939  0.26839220  0.29969224     0.15900
C1916       C  0.15911869  0.24823273  0.28292866     0.21700
C1917       C  0.13342270  0.23827155  0.28247946    -0.34500
C1918       C  0.11551102  0.24995237  0.29999550     0.15800
O1919       O  0.10314281  0.27684928  0.33278905    -0.26500
C1920       C  0.08312348  0.26172952  0.32542125     0.05600
C1921       C  0.08973532  0.24461177  0.30501031    -0.31400
O1922       O  0.17889641  0.24018785  0.26822289    -0.23300
C1923       C  0.19878681  0.25553065  0.27540436    -0.03200
C1924       C  0.19194974  0.27347985  0.29496097    -0.17700
H1925       H  0.15398863  0.29529488  0.33087488     0.20300
H1926       H  0.12781174  0.22242083  0.26942884     0.18700
H1927       H  0.07774502  0.22945070  0.29619442     0.18600
H1928       H  0.20428188  0.28800669  0.30432473     0.14500
C1929       C  0.82487343  0.46235513  0.63256791     0.29900
C1930       C  0.83050779  0.45026514  0.60880786    -0.36400
C1931       C  0.81001555  0.44911652  0.59106620     0.15900
C1932       C  0.78545242  0.45935179  0.59608740     0.21700
C1933       C  0.78008021  0.47260276  0.61984515    -0.34500
C1934       C  0.80080704  0.47347439  0.63800943     0.15800
O1935       O  0.84092547  0.46332155  0.65232735    -0.26500
C1936       C  0.82748893  0.47540680  0.67098862     0.05600
C1937       C  0.80225304  0.48253439  0.66338468    -0.31400
O1938       O  0.76802982  0.45099314  0.57886509    -0.23300
C1939       C  0.78191044  0.43541653  0.56303210    -0.03200
C1940       C  0.80806950  0.43388679  0.56957492    -0.17700
H1941       H  0.84911322  0.44067977  0.60518197     0.20300
H1942       H  0.76071807  0.47984191  0.62459683     0.18700
H1943       H  0.78745277  0.49278160  0.67467392     0.18600
H1944       H  0.82253372  0.42015327  0.56232982     0.14500
C1945       C  0.82446876  0.53719693  0.86434960     0.29900
C1946       C  0.82983981  0.54920909  0.88819913    -0.36400
C1947       C  0.80909893  0.55060514  0.90559568     0.15900
C1948       C  0.78454279  0.54066134  0.90014258     0.21700
C1949       C  0.77947299  0.52737656  0.87635408    -0.34500
C1950       C  0.80045180  0.52626526  0.85854623     0.15800
O1951       O  0.84072861  0.53619528  0.84479992    -0.26500
C1952       C  0.82749703  0.52420575  0.82596041     0.05600
C1953       C  0.80218129  0.51721840  0.83319162    -0.31400
O1954       O  0.76686693  0.54940954  0.91691143    -0.23300
C1955       C  0.78057619  0.56495977  0.93285307    -0.03200
C1956       C  0.80689969  0.56600313  0.92695178    -0.17700
H1957       H  0.84842055  0.55865336  0.89208877     0.20300
H1958       H  0.76014127  0.52036447  0.87127462     0.18700
H1959       H  0.78746680  0.50719994  0.82163566     0.18600
H1960       H  0.82145127  0.57940978  0.93461351     0.14500
C1961       C  0.96783251  0.51090181  0.58924338     0.29900
C1962       C  0.97102809  0.50607815  0.61623795    -0.36400
C1963       C  0.94933429  0.51165974  0.63223349     0.15900
C1964       C  0.92614247  0.52144829  0.62232750     0.21700
C1965       C  0.92298631  0.52635888  0.59534694    -0.34500
C1966       C  0.94459947  0.52057952  0.57932480     0.15800
O1967       O  0.98516848  0.50604505  0.57066271    -0.26500
C1968       C  0.97287116  0.51256885  0.54853113     0.05600
C1969       C  0.94755383  0.52174463  0.55269058    -0.31400
O1970       O  0.90785599  0.52361312  0.64048156    -0.23300
C1971       C  0.91941255  0.51508125  0.66233671    -0.03200
C1972       C  0.94530234  0.50751253  0.65841412    -0.17700
H1973       H  0.98893596  0.49785644  0.62411251     0.20300
H1974       H  0.90467363  0.53344024  0.58730759     0.18700
H1975       H  0.93332083  0.52787615  0.53817803     0.18600
H1976       H  0.95871715  0.49897101  0.67249267     0.14500
C1977       C  0.92686542  0.48499997  0.87585743     0.29900
C1978       C  0.92308390  0.48128536  0.90299003    -0.36400
C1979       C  0.94519063  0.48445073  0.91914015     0.15900
C1980       C  0.96946688  0.49076542  0.90929224     0.21700
C1981       C  0.97332541  0.49429122  0.88203558    -0.34500
C1982       C  0.95109388  0.49131206  0.86583109     0.15800
O1983       O  0.90855201  0.48402759  0.85754877    -0.26500
C1984       C  0.92095005  0.48991500  0.83528956     0.05600
C1985       C  0.94757591  0.49462734  0.83925178    -0.31400
O1986       O  0.98707676  0.49407724  0.92813360    -0.23300
C1987       C  0.97395259  0.48985540  0.95043506    -0.03200
C1988       C  0.94781625  0.48350139  0.94587644    -0.17700
H1989       H  0.90400912  0.47685141  0.91104011     0.20300
H1990       H  0.99220210  0.49964362  0.87409390     0.18700
H1991       H  0.96205669  0.50012857  0.82479104     0.18600
H1992       H  0.93275516  0.47919441  0.96011225     0.14500
C1993       C  0.82377618  0.62739279  0.76658678     0.29900
C1994       C  0.82665296  0.65423944  0.77293526    -0.36400
C1995       C  0.80566238  0.67091277  0.76621415     0.15900
C1996       C  0.78335091  0.66173366  0.75407275     0.21700
C1997       C  0.78041271  0.63486852  0.74784255    -0.34500
C1998       C  0.80141889  0.61818990  0.75454890     0.15800
O1999       O  0.84146785  0.60868616  0.77006400    -0.26500
C2000       C  0.83040293  0.58701742  0.76027903     0.05600
C2001       C  0.80538563  0.59181221  0.75032600    -0.31400
O2002       O  0.76654403  0.68079135  0.74869067    -0.23300
C2003       C  0.77813844  0.70259659  0.75742794    -0.03200
C2004       C  0.80251487  0.69759052  0.76872139    -0.17700
H2005       H  0.84429263  0.66169860  0.78204268     0.20300
H2006       H  0.76311726  0.62755718  0.73799986     0.18700
H2007       H  0.79245858  0.57811652  0.74051996     0.18600
H2008       H  0.81606752  0.71154355  0.77719524     0.14500
C2009       C  0.67079234  0.13157407  0.76443068     0.29900
C2010       C  0.66705398  0.15888655  0.76680167    -0.36400
C2011       C  0.68957050  0.17459242  0.76512826     0.15900
C2012       C  0.71424276  0.16419123  0.76157879     0.21700
C2013       C  0.71803552  0.13675310  0.75918374    -0.34500
C2014       C  0.69537313  0.12099939  0.76056218     0.15800
O2015       O  0.65221965  0.11353868  0.76466284    -0.26500
C2016       C  0.66483072  0.09092777  0.76062740     0.05600
C2017       C  0.69180772  0.09437509  0.75790149    -0.31400
O2018       O  0.73235773  0.18269266  0.75959415    -0.23300
C2019       C  0.71910922  0.20531575  0.76173518    -0.03200
C2020       C  0.69238967  0.20130894  0.76538833    -0.17700
H2021       H  0.64776756  0.16737570  0.76925758     0.20300
H2022       H  0.73722750  0.12832685  0.75589678     0.18700
H2023       H  0.70655165  0.07947209  0.75434414     0.18600
H2024       H  0.67711840  0.21594774  0.76731872     0.14500
C2025       C  0.76968943  0.18642288  0.87776143     0.29900
C2026       C  0.78140213  0.18710937  0.85268594    -0.36400
C2027       C  0.76989394  0.20406875  0.83414179     0.15900
C2028       C  0.74817585  0.21914624  0.83990878     0.21700
C2029       C  0.73670133  0.21875399  0.86511063    -0.34500
C2030       C  0.74838367  0.20198340  0.88374752     0.15800
O2031       O  0.77631549  0.17077206  0.89736743    -0.26500
C2032       C  0.75946731  0.17661248  0.91657232     0.05600
C2033       C  0.74159510  0.19602824  0.90916237    -0.31400
O2034       O  0.73995980  0.23285305  0.81945826    -0.23300
C2035       C  0.75671466  0.22676244  0.80028088    -0.03200
C2036       C  0.77587063  0.20894713  0.80831814    -0.17700
H2037       H  0.79805994  0.17484733  0.84782179     0.20300
H2038       H  0.71956507  0.23041978  0.86972999     0.18700
H2039       H  0.72510149  0.20347786  0.92025809     0.18600
H2040       H  0.79160705  0.20060870  0.79674613     0.14500
C2041       C  0.61344018  0.24625805  0.69734357     0.29900
C2042       C  0.62937845  0.25972381  0.71551549    -0.36400
C2043       C  0.65583158  0.25186354  0.71683787     0.15900
C2044       C  0.66603353  0.23186854  0.70158071     0.21700
C2045       C  0.65012270  0.21849981  0.68325627    -0.34500
C2046       C  0.62368208  0.22654014  0.68176826     0.15800
O2047       O  0.58850833  0.25136440  0.69194323    -0.26500
C2048       C  0.58253075  0.23470218  0.67255322     0.05600
C2049       C  0.60379384  0.21886334  0.66546088    -0.31400
O2050       O  0.69131588  0.22769647  0.70621392    -0.23300
C2051       C  0.69744373  0.24546939  0.72456251    -0.03200
C2052       C  0.67611513  0.26104320  0.73174614    -0.17700
H2053       H  0.62177751  0.27558235  0.72752695     0.20300
H2054       H  0.65789037  0.20311013  0.67075828     0.18700
H2055       H  0.60478105  0.20459298  0.64967482     0.18600
H2056       H  0.67564221  0.27670227  0.74617916     0.14500
C2057       C  0.73182522  0.33115130  0.62978933     0.29900
C2058       C  0.72617917  0.33445477  0.65676287    -0.36400
C2059       C  0.72993846  0.31223179  0.67288417     0.15900
C2060       C  0.73853574  0.28845326  0.66302690     0.21700
C2061       C  0.74402922  0.28515752  0.63616916    -0.34500
C2062       C  0.74041916  0.30729337  0.62014186     0.15800
O2063       O  0.73081576  0.34944521  0.61131548    -0.26500
C2064       C  0.73888987  0.33710288  0.58955479     0.05600
C2065       C  0.74509628  0.31083318  0.59397868    -0.31400
O2066       O  0.74203795  0.27063257  0.68151645    -0.23300
C2067       C  0.73568881  0.28294564  0.70373786    -0.03200
C2068       C  0.72779376  0.30892050  0.69954207    -0.17700
H2069       H  0.71989748  0.35318882  0.66471794     0.20300
H2070       H  0.75126731  0.26669797  0.62838523     0.18700
H2071       H  0.75259153  0.29657775  0.58004290     0.18600
H2072       H  0.72206325  0.32343326  0.71401477     0.14500
C2073       C  0.80435038  0.38543981  0.73879377     0.29900
C2074       C  0.78194680  0.37168439  0.74679022    -0.36400
C2075       C  0.78210096  0.34439327  0.74245878     0.15900
C2076       C  0.80270906  0.33132022  0.73072273     0.21700
C2077       C  0.82504632  0.34516418  0.72232721    -0.34500
C2078       C  0.82500632  0.37254341  0.72692550     0.15800
O2079       O  0.80922463  0.41060708  0.74324620    -0.26500
C2080       C  0.83336731  0.41409638  0.73408945     0.05600
C2081       C  0.84403953  0.39107440  0.72350047    -0.31400
O2082       O  0.79898098  0.30551921  0.72966061    -0.23300
C2083       C  0.77561668  0.30215886  0.74084020    -0.03200
C2084       C  0.76439765  0.32565990  0.74924305    -0.17700
H2085       H  0.76585885  0.38146233  0.75664229     0.20300
H2086       H  0.84165734  0.33518650  0.71363184     0.18700
H2087       H  0.86358447  0.38808585  0.71585698     0.18600
H2088       H  0.74589877  0.32841909  0.75923950     0.14500
C2089       C  0.54705917  0.86120137  0.82418474     0.29900
C2090       C  0.56173192  0.88329895  0.82987854    -0.36400
C2091       C  0.56024878  0.90328461  0.81161247     0.15900
C2092       C  0.54565913  0.90171153  0.78880864     0.21700
C2093       C  0.52992820  0.87961528  0.78350914    -0.34500
C2094       C  0.53128369  0.85937065  0.80221821     0.15800
O2095       O  0.54602717  0.84057694  0.83907348    -0.26500
C2096       C  0.52910007  0.82509493  0.82709668     0.05600
C2097       C  0.51911134  0.83548713  0.80383493    -0.31400
O2098       O  0.55141915  0.92087267  0.77240167    -0.23300
C2099       C  0.56959826  0.93449991  0.78533017    -0.03200
C2100       C  0.57524971  0.92477670  0.80997682    -0.17700
H2101       H  0.57425953  0.88441287  0.84701561     0.20300
H2102       H  0.51852341  0.87783787  0.76567564     0.18700
H2103       H  0.50425452  0.82739964  0.79101433     0.18600
H2104       H  0.59088369  0.93054370  0.82316001     0.14500
C2105       C  0.65646632  0.69026748  0.93881878     0.29900
C2106       C  0.63823694  0.68635885  0.91898414    -0.36400
C2107       C  0.61409436  0.69822721  0.92288745     0.15900
C2108       C  0.60826623  0.71406656  0.94414013     0.21700
C2109       C  0.62670390  0.71804542  0.96426616    -0.34500
C2110       C  0.65092515  0.70527234  0.96081548     0.15800
O2111       O  0.67805242  0.67674596  0.94109466    -0.26500
C2112       C  0.68665315  0.68267436  0.96488992     0.05600
C2113       C  0.67097136  0.70087610  0.97802603    -0.31400
O2114       O  0.58469806  0.72468471  0.94225279    -0.23300
C2115       C  0.57561843  0.71483906  0.91976057    -0.03200
C2116       C  0.59292302  0.69784314  0.90738297    -0.17700
H2117       H  0.64216499  0.67372537  0.90228353     0.20300
H2118       H  0.62222613  0.72947528  0.98164483     0.18700
H2119       H  0.67183433  0.70649403  0.99852377     0.18600
H2120       H  0.59113471  0.68849838  0.88831159     0.14500
C2121       C  0.46404906  0.65379965  0.78694799     0.29900
C2122       C  0.46928936  0.63027383  0.77329423    -0.36400
C2123       C  0.44857729  0.61224257  0.77225945     0.15900
C2124       C  0.42453055  0.61765046  0.78342103     0.21700
C2125       C  0.41895108  0.64131698  0.79577614    -0.34500
C2126       C  0.43954755  0.65885985  0.79732390     0.15800
O2127       O  0.48164810  0.67052031  0.79576033    -0.26500
C2128       C  0.46799098  0.68604932  0.81179189     0.05600
C2129       C  0.44176533  0.67988696  0.81321670    -0.31400
O2130       O  0.40882958  0.59762771  0.78303951    -0.23300
C2131       C  0.42257082  0.57889334  0.77139508    -0.03200
C2132       C  0.44749961  0.58670129  0.76377489    -0.17700
H2133       H  0.48868252  0.62540975  0.76618405     0.20300
H2134       H  0.40047965  0.64480174  0.80561892     0.18700
H2135       H  0.42734920  0.68723147  0.82698770     0.18600
H2136       H  0.46254592  0.57523800  0.75406457     0.14500
C2137       C  0.51629688  0.57739497  0.94189635     0.29900
C2138       C  0.52140691  0.59040744  0.91805713    -0.36400
C2139       C  0.51763604  0.61785532  0.91805663     0.15900
C2140       C  0.50915762  0.63150354  0.93993051     0.21700
C2141       C  0.50404214  0.61852492  0.96369118    -0.34500
C2142       C  0.50804598  0.59120155  0.96375320     0.15800
O2143       O  0.51800031  0.55178121  0.94628528    -0.26500
C2144       C  0.51113396  0.54926327  0.97143310     0.05600
C2145       C  0.50451055  0.57313604  0.98311149    -0.31400
O2146       O  0.50592853  0.65686223  0.93535695    -0.23300
C2147       C  0.51256586  0.65967944  0.91022252    -0.03200
C2148       C  0.52009055  0.63604135  0.89847883    -0.17700
H2149       H  0.52765606  0.57985074  0.90066296     0.20300
H2150       H  0.49715737  0.62899007  0.98090785     0.18700
H2151       H  0.49750701  0.57651959  0.00290653     0.18600
H2152       H  0.52566758  0.63263719  0.87824365     0.14500
C2153       C  0.61728722  0.76065249  0.80123615     0.29900
C2154       C  0.63142716  0.75816879  0.77763115    -0.36400
C2155       C  0.65886226  0.76007666  0.77962820     0.15900
C2156       C  0.67165412  0.76394734  0.80319511     0.21700
C2157       C  0.65754251  0.76660818  0.82674138    -0.34500
C2158       C  0.63013476  0.76496837  0.82470529     0.15800
O2159       O  0.59157173  0.75845720  0.80422745    -0.26500
C2160       C  0.58792915  0.76176835  0.82997594     0.05600
C2161       C  0.61128070  0.76594076  0.84352691    -0.31400
O2162       O  0.69745292  0.76406040  0.80062493    -0.23300
C2163       C  0.70131202  0.76053503  0.77495472    -0.03200
C2164       C  0.67794454  0.75781742  0.76105515    -0.17700
H2165       H  0.62176052  0.75460909  0.75903485     0.20300
H2166       H  0.66726599  0.76941287  0.84543635     0.18700
H2167       H  0.61404301  0.76830639  0.86449156     0.18600
H2168       H  0.67547745  0.75395579  0.74027548     0.14500
C2169       C  0.48414053  0.87271756  0.93146625     0.29900
C2170       C  0.47652103  0.89924665  0.92938256    -0.36400
C2171       C  0.48402866  0.91599156  0.95004362     0.15900
C2172       C  0.49809832  0.90722816  0.97142607     0.21700
C2173       C  0.50555478  0.88052628  0.97365319    -0.34500
C2174       C  0.49804143  0.86370945  0.95286170     0.15800
O2175       O  0.48033955  0.85427319  0.91357388    -0.26500
C2176       C  0.49176142  0.83285104  0.92341894     0.05600
C2177       C  0.50309192  0.83754146  0.94798762    -0.31400
O2178       O  0.50393914  0.92656038  0.98791266    -0.23300
C2179       C  0.49340427  0.94799304  0.97699137    -0.03200
C2180       C  0.48071559  0.94251699  0.95340662    -0.17700
H2181       H  0.46595707  0.90647895  0.91243131     0.20300
H2182       H  0.51691941  0.87348515  0.99015964     0.18700
H2183       H  0.51432274  0.82402106  0.95992440     0.18600
H2184       H  0.47096167  0.95618682  0.94039920     0.14500
C2185       C  0.18948242  0.82449015  0.76458892     0.29900
C2186       C  0.16550939  0.83823121  0.76504170    -0.36400
C2187       C  0.16698500  0.86583202  0.76309051     0.15900
C2188       C  0.19037092  0.87902947  0.76033804     0.21700
C2189       C  0.21430196  0.86530487  0.76013538    -0.34500
C2190       C  0.21286318  0.83779878  0.76262641     0.15800
O2191       O  0.19272031  0.79861715  0.76485545    -0.26500
C2192       C  0.21861270  0.79528051  0.76355969     0.05600
C2193       C  0.23200470  0.81907192  0.76222740    -0.31400
O2194       O  0.18718838  0.90479172  0.75805904    -0.23300
C2195       C  0.16139328  0.90827851  0.75980081    -0.03200
C2196       C  0.14789781  0.88468574  0.76297906    -0.17700
H2197       H  0.14697588  0.82810231  0.76654540     0.20300
H2198       H  0.23280310  0.87536710  0.75798671     0.18700
H2199       H  0.25281378  0.82203004  0.75969623     0.18600
H2200       H  0.12697472  0.88184877  0.76458494     0.14500
C2201       C  0.30461327  0.67015515  0.73594754     0.29900
C2202       C  0.32801487  0.65580035  0.73347344    -0.36400
C2203       C  0.32597181  0.62830770  0.73566358     0.15900
C2204       C  0.30264307  0.61552813  0.74025054     0.21700
C2205       C  0.27912185  0.62989224  0.74226063    -0.34500
C2206       C  0.28111483  0.65743943  0.73980088     0.15800
O2207       O  0.30217924  0.69612546  0.73605172    -0.26500
C2208       C  0.27662829  0.70016115  0.73954342     0.05600
C2209       C  0.26268103  0.67675745  0.74194813    -0.31400
O2210       O  0.30566118  0.58967926  0.74285898    -0.23300
C2211       C  0.33129812  0.58593297  0.73952807    -0.03200
C2212       C  0.34469720  0.60932147  0.73494707    -0.17700
H2213       H  0.34664743  0.66542115  0.73056826     0.20300
H2214       H  0.26060146  0.62033327  0.74597084     0.18700
H2215       H  0.24202174  0.67443280  0.74596701     0.18600
H2216       H  0.36551954  0.61199572  0.73213626     0.14500
C2217       C  0.33863451  0.74298342  0.78273091     0.29900
C2218       C  0.36535064  0.74888625  0.77920433    -0.36400
C2219       C  0.38191928  0.74429486  0.80083631     0.15900
C2220       C  0.37276061  0.73443908  0.82428770     0.21700
C2221       C  0.34605662  0.72864419  0.82786437    -0.34500
C2222       C  0.32948308  0.73335241  0.80627896     0.15800
O2223       O  0.31968778  0.74649056  0.76534810    -0.26500
C2224       C  0.29797968  0.73908058  0.77782442     0.05600
C2225       C  0.30294172  0.73073612  0.80344632    -0.31400
O2226       O  0.39140906  0.73223521  0.84213525    -0.23300
C2227       C  0.41291636  0.74087821  0.83014338    -0.03200
C2228       C  0.40818251  0.74864183  0.80432025    -0.17700
H2229       H  0.37264942  0.75687925  0.76094536     0.20300
H2230       H  0.33865495  0.72132215  0.84635777     0.18700
H2231       H  0.28898169  0.72421905  0.81798702     0.18600
H2232       H  0.42193118  0.75675694  0.79038328     0.14500
C2233       C  0.17314673  0.54130073  0.36466820     0.29900
C2234       C  0.16815073  0.55429690  0.38817209    -0.36400
C2235       C  0.18906124  0.55568315  0.40548950     0.15900
C2236       C  0.21340150  0.54506338  0.40016513     0.21700
C2237       C  0.21824737  0.53139156  0.37660869    -0.34500
C2238       C  0.19710280  0.52999361  0.35906881     0.15800
O2239       O  0.15635954  0.53870476  0.34561762    -0.26500
C2240       C  0.16934215  0.52535544  0.32744576     0.05600
C2241       C  0.19490896  0.51919392  0.33452674    -0.31400
O2242       O  0.23103002  0.55239236  0.41758155    -0.23300
C2243       C  0.21752842  0.56765305  0.43398466    -0.03200
C2244       C  0.19136893  0.57015497  0.42753553    -0.17700
H2245       H  0.14952056  0.56366231  0.39218294     0.20300
H2246       H  0.23736360  0.52355697  0.37180083     0.18700
H2247       H  0.20939832  0.50822805  0.32350405     0.18600
H2248       H  0.17697602  0.58337627  0.43592768     0.14500
C2249       C  0.29534928  0.53115104  0.64966318     0.29900
C2250       C  0.28245821  0.52643075  0.62567507    -0.36400
C2251       C  0.27873459  0.54856039  0.60965601     0.15900
C2252       C  0.28692322  0.57331378  0.61721992     0.21700
C2253       C  0.29890975  0.57811109  0.64118869    -0.34500
C2254       C  0.30291414  0.55623053  0.65680570     0.15800
O2255       O  0.30518087  0.51322981  0.66553925    -0.26500
C2256       C  0.31897902  0.52733112  0.68268716     0.05600
C2257       C  0.31815535  0.55405557  0.67820776    -0.31400
O2258       O  0.28422187  0.59075646  0.59879967    -0.23300
C2259       C  0.27407631  0.57740187  0.57898005    -0.03200
C2260       C  0.26975476  0.55098207  0.58443859    -0.17700
H2261       H  0.27747628  0.50679465  0.61918300     0.20300
H2262       H  0.30635282  0.59733238  0.64643394     0.18700
H2263       H  0.32977926  0.56932247  0.68726749     0.18600
H2264       H  0.26212994  0.53585735  0.57157178     0.14500
C2265       C  0.36586956  0.67378273  0.45840850     0.29900
C2266       C  0.39035956  0.66797488  0.44815215    -0.36400
C2267       C  0.40829633  0.68834899  0.44875045     0.15900
C2268       C  0.40255345  0.71309930  0.45840076     0.21700
C2269       C  0.37799508  0.71871128  0.46962149    -0.34500
C2270       C  0.35988733  0.69799077  0.46918891     0.15800
O2271       O  0.34646739  0.65730045  0.45938629    -0.26500
C2272       C  0.32764663  0.67064721  0.47130831     0.05600
C2273       C  0.33463319  0.69627256  0.47791347    -0.31400
O2274       O  0.42036879  0.73044755  0.45153723    -0.23300
C2275       C  0.43741766  0.71634297  0.43757688    -0.03200
C2276       C  0.43115370  0.69000953  0.43584782    -0.17700
H2277       H  0.39473942  0.64914028  0.43920349     0.20300
H2278       H  0.37291490  0.73811894  0.47676116     0.18700
H2279       H  0.32330851  0.71088141  0.48845581     0.18600
H2280       H  0.43951997  0.67531529  0.42293102     0.14500
C2281       C  0.36622743  0.54962997  0.51142525     0.29900
C2282       C  0.38033330  0.52617153  0.50705022    -0.36400
C2283       C  0.40781617  0.52776558  0.50926104     0.15900
C2284       C  0.42068844  0.55082672  0.51524971     0.21700
C2285       C  0.40658641  0.57412733  0.52006384    -0.34500
C2286       C  0.37914981  0.57249781  0.51800209     0.15800
O2287       O  0.34057717  0.55319739  0.50867139    -0.26500
C2288       C  0.33702250  0.57869791  0.51390244     0.05600
C2289       C  0.36039995  0.59146914  0.51995032    -0.31400
O2290       O  0.44652890  0.54816647  0.51489845    -0.23300
C2291       C  0.45032798  0.52290321  0.50892406    -0.03200
C2292       C  0.42690230  0.50938507  0.50516021    -0.17700
H2293       H  0.37062813  0.50806295  0.50161977     0.20300
H2294       H  0.41636073  0.59246425  0.52448664     0.18700
H2295       H  0.36331986  0.61217996  0.52388976     0.18600
H2296       H  0.42439226  0.48904482  0.49941851     0.14500
C2297       C  0.08935057  0.53485554  0.49694557     0.29900
C2298       C  0.11569639  0.53260351  0.50475363    -0.36400
C2299       C  0.13225991  0.55348154  0.49779277     0.15900
C2300       C  0.12342769  0.57523124  0.48428429     0.21700
C2301       C  0.09702107  0.57756440  0.47661480    -0.34500
C2302       C  0.08048420  0.55657272  0.48339447     0.15800
O2303       O  0.07053547  0.51775507  0.50167605    -0.26500
C2304       C  0.04928139  0.52846792  0.49087187     0.05600
C2305       C  0.05425660  0.55275352  0.47934714    -0.31400
O2306       O  0.14209346  0.59275499  0.48044517    -0.23300
C2307       C  0.16328147  0.58209745  0.49150075    -0.03200
C2308       C  0.15827853  0.55761567  0.50260316    -0.17700
H2309       H  0.12276652  0.51576458  0.51563427     0.20300
H2310       H  0.08983704  0.59464697  0.46620958     0.18700
H2311       H  0.04045377  0.56586107  0.46992338     0.18600
H2312       H  0.17167860  0.54505927  0.51329048     0.14500
C2313       C  0.24743248  0.71671065  0.66158069     0.29900
C2314       C  0.25793902  0.71801628  0.63603591    -0.36400
C2315       C  0.24859031  0.69938603  0.61786134     0.15900
C2316       C  0.23041074  0.68058668  0.62457112     0.21700
C2317       C  0.21973206  0.67944843  0.65001878    -0.34500
C2318       C  0.22883908  0.69823888  0.66808370     0.15800
O2319       O  0.25404296  0.73158127  0.68181295    -0.26500
C2320       C  0.23930543  0.72274290  0.70148304     0.05600
C2321       C  0.22316614  0.70203542  0.69409138    -0.31400
O2322       O  0.22565299  0.66404051  0.60515168    -0.23300
C2323       C  0.24062316  0.67245567  0.58546397    -0.03200
C2324       C  0.25532093  0.69449711  0.59223788    -0.17700
H2325       H  0.27270279  0.73228833  0.63082686     0.20300
H2326       H  0.20563656  0.66460137  0.65548426     0.18700
H2327       H  0.20981965  0.69098196  0.70628486     0.18600
H2328       H  0.26982730  0.70452954  0.58050665     0.14500
C2329       C  0.32723706  0.76453875  0.31025107     0.29900
C2330       C  0.34067205  0.76925192  0.33408351    -0.36400
C2331       C  0.36814770  0.76593360  0.33359596     0.15900
C2332       C  0.38139387  0.75823081  0.31125569     0.21700
C2333       C  0.36801049  0.75361713  0.28752448    -0.34500
C2334       C  0.34071278  0.75719758  0.28794237     0.15800
O2335       O  0.30155027  0.76563723  0.30628594    -0.26500
C2336       C  0.29861981  0.75928652  0.28094442     0.05600
C2337       C  0.32238179  0.75374310  0.26873423    -0.31400
O2338       O  0.40683344  0.75527174  0.31527173    -0.23300
C2339       C  0.41027548  0.76137812  0.34053492    -0.03200
C2340       C  0.38678985  0.76819747  0.35291965    -0.17700
H2341       H  0.33040461  0.77482688  0.35183654     0.20300
H2342       H  0.37818758  0.74735345  0.26993587     0.18700
H2343       H  0.32554605  0.74725746  0.24870961     0.18600
H2344       H  0.38378878  0.77323731  0.37336823     0.14500
C2345       C  0.30676361  0.82668796  0.23700208     0.29900
C2346       C  0.33036042  0.84058042  0.23376318    -0.36400
C2347       C  0.32885560  0.86820877  0.23581730     0.15900
C2348       C  0.30581502  0.88138758  0.24107324     0.21700
C2349       C  0.28214928  0.86750596  0.24388304    -0.34500
C2350       C  0.28359036  0.83989901  0.24149962     0.15800
O2351       O  0.30384626  0.80076161  0.23711537    -0.26500
C2352       C  0.27832300  0.79722682  0.24134435     0.05600
C2353       C  0.26484488  0.82096714  0.24412018    -0.31400
O2354       O  0.30919119  0.90715941  0.24367383    -0.23300
C2355       C  0.33474799  0.91065061  0.23964932    -0.03200
C2356       C  0.34782263  0.88703625  0.23454732    -0.17700
H2357       H  0.34873958  0.83051778  0.23035283     0.20300
H2358       H  0.26390631  0.87750147  0.24811686     0.18700
H2359       H  0.24431233  0.82377046  0.24853864     0.18600
H2360       H  0.36855689  0.88409306  0.23129025     0.14500
C2361       C  0.21516564  0.65972569  0.25921853     0.29900
C2362       C  0.21699209  0.63305050  0.25201303    -0.36400
C2363       C  0.19638522  0.61664512  0.26000464     0.15900
C2364       C  0.17516163  0.62581607  0.27401780     0.21700
C2365       C  0.17356754  0.65253893  0.28173265    -0.34500
C2366       C  0.19434332  0.66901790  0.27376974     0.15800
O2367       O  0.23176224  0.67848560  0.25262455    -0.26500
C2368       C  0.22176554  0.70033106  0.26314665     0.05600
C2369       C  0.19846549  0.69559927  0.27670468    -0.31400
O2370       O  0.15707223  0.60739873  0.27736192    -0.23300
C2371       C  0.16699988  0.58603395  0.26557419    -0.03200
C2372       C  0.19154896  0.59073648  0.25468561    -0.17700
H2373       H  0.23310566  0.62570102  0.24028946     0.20300
H2374       H  0.15691844  0.66012159  0.29250013     0.18700
H2375       H  0.18616038  0.70972055  0.28677172     0.18600
H2376       H  0.20341342  0.57739859  0.24309578     0.14500
C2377       C  0.26973207  0.67123969  0.37315843     0.29900
C2378       C  0.27276043  0.66800415  0.34583315    -0.36400
C2379       C  0.26871082  0.69055739  0.33039608     0.15900
C2380       C  0.26244106  0.71466654  0.34119102     0.21700
C2381       C  0.25969585  0.71794776  0.36847127    -0.34500
C2382       C  0.26340865  0.69538027  0.38385278     0.15800
O2383       O  0.27063673  0.65246258  0.39104072    -0.26500
C2384       C  0.26474717  0.66470257  0.41348863     0.05600
C2385       C  0.26013989  0.69146615  0.41017313    -0.31400
O2386       O  0.25811023  0.73278887  0.32320005    -0.23300
C2387       C  0.26154818  0.72024645  0.30045868    -0.03200
C2388       C  0.26830064  0.69388082  0.30372732    -0.17700
H2389       H  0.27703680  0.64903004  0.33715170     0.20300
H2390       H  0.25411868  0.73663788  0.37704243     0.18700
H2391       H  0.25413578  0.70570662  0.42483620     0.18600
H2392       H  0.27175705  0.67921090  0.28868967     0.14500
C2393       C  0.89845712  0.71664204  0.04840373     0.29900
C2394       C  0.87634981  0.72093007  0.03235888    -0.36400
C2395       C  0.85822411  0.70014661  0.03132528     0.15900
C2396       C  0.86196535  0.67718164  0.04524621     0.21700
C2397       C  0.88399929  0.67270238  0.06049509    -0.34500
C2398       C  0.90188698  0.69306418  0.06134631     0.15800
O2399       O  0.91627697  0.73412699  0.05536290    -0.26500
C2400       C  0.93099403  0.72108813  0.07263040     0.05600
C2401       C  0.92309118  0.69547277  0.07669197    -0.31400
O2402       O  0.84288976  0.66054581  0.04245776    -0.23300
C2403       C  0.82641543  0.67248575  0.02636286    -0.03200
C2404       C  0.83477726  0.69731399  0.01849156    -0.17700
H2405       H  0.87305971  0.73935314  0.02229440     0.20300
H2406       H  0.88660269  0.65479036  0.07164415     0.18700
H2407       H  0.93021915  0.68159054  0.09113698     0.18600
H2408       H  0.82539484  0.71080566  0.00502637     0.14500
C2409       C  0.04684031  0.59760204  0.20864664     0.29900
C2410       C  0.03115734  0.61970235  0.21389833    -0.36400
C2411       C  0.03275337  0.63998034  0.19541385     0.15900
C2412       C  0.04841625  0.63810407  0.17339048     0.21700
C2413       C  0.06315773  0.61591171  0.16768280    -0.34500
C2414       C  0.06179100  0.59597516  0.18606820     0.15800
O2415       O  0.05268027  0.57885449  0.22539209    -0.26500
C2416       C  0.07148599  0.56552388  0.21316923     0.05600
C2417       C  0.07746652  0.57488356  0.18846137    -0.31400
O2418       O  0.04752438  0.65899539  0.15881823    -0.23300
C2419       C  0.03093640  0.67462448  0.17125956    -0.03200
C2420       C  0.02101734  0.66409093  0.19436803    -0.17700
H2421       H  0.01985564  0.62159283  0.23177889     0.20300
H2422       H  0.07588091  0.61484808  0.15070742     0.18700
H2423       H  0.09363636  0.56931481  0.17586055     0.18600
H2424       H  0.00641153  0.67226185  0.20745376     0.14500
C2425       C  0.98026829  0.62742153  0.06935943     0.29900
C2426       C  0.97180683  0.60108645  0.07106759    -0.36400
C2427       C  0.98062997  0.58384944  0.05121554     0.15900
C2428       C  0.99669936  0.59205425  0.03111070     0.21700
C2429       C  0.00482537  0.61842748  0.02921725    -0.34500
C2430       C  0.99598583  0.63565838  0.04900450     0.15800
O2431       O  0.97598014  0.64628615  0.08679164    -0.26500
C2432       C  0.98885956  0.66708201  0.07744366     0.05600
C2433       C  0.00158846  0.66158062  0.05384799    -0.31400
O2434       O  0.00370798  0.57256436  0.01536127    -0.23300
C2435       C  0.99193384  0.55146544  0.02529880    -0.03200
C2436       C  0.97715220  0.55733258  0.04760488    -0.17700
H2437       H  0.95978475  0.59434740  0.08717516     0.20300
H2438       H  0.01774610  0.62492252  0.01371450     0.18700
H2439       H  0.01438102  0.67432039  0.04274996     0.18600
H2440       H  0.96597784  0.54394676  0.05964552     0.14500
C2441       C  0.83869472  0.74804320  0.21596594     0.29900
C2442       C  0.86343140  0.73578280  0.21487851    -0.36400
C2443       C  0.88236263  0.74793350  0.19897393     0.15900
C2444       C  0.87714400  0.77039029  0.18476520     0.21700
C2445       C  0.85255356  0.78292048  0.18624441    -0.34500
C2446       C  0.83370917  0.77094844  0.20240340     0.15800
O2447       O  0.81796974  0.73954015  0.22890521    -0.26500
C2448       C  0.79942738  0.75735281  0.22390539     0.05600
C2449       C  0.80816190  0.77743025  0.20754675    -0.31400
O2450       O  0.89691132  0.77720279  0.16948821    -0.23300
C2451       C  0.91534006  0.75922861  0.17432257    -0.03200
C2452       C  0.90738544  0.74058936  0.19265736    -0.17700
H2453       H  0.86748174  0.71772537  0.22533251     0.20300
H2454       H  0.84822785  0.80048862  0.17509437     0.18700
H2455       H  0.79714448  0.79404942  0.20018381     0.18600
H2456       H  0.91787568  0.72324357  0.19907803     0.14500
C2457       C  0.11769634  0.74040907  0.19724705     0.29900
C2458       C  0.13174891  0.74488657  0.22064175    -0.36400
C2459       C  0.15902589  0.74092788  0.21946926     0.15900
C2460       C  0.17179557  0.73329542  0.19681305     0.21700
C2461       C  0.15770875  0.72850061  0.17350845    -0.34500
C2462       C  0.13039912  0.73229108  0.17472462     0.15800
O2463       O  0.09223428  0.74409744  0.19353745    -0.26500
C2464       C  0.08846352  0.73800166  0.16829749     0.05600
C2465       C  0.11159125  0.73049205  0.15574420    -0.31400
O2466       O  0.19757487  0.73223023  0.19981081    -0.23300
C2467       C  0.20134298  0.73891151  0.22488500    -0.03200
C2468       C  0.17803149  0.74453516  0.23795700    -0.17700
H2469       H  0.12215556  0.75152993  0.23842178     0.20300
H2470       H  0.16742443  0.72273648  0.15549383     0.18700
H2471       H  0.11430173  0.72540069  0.13525558     0.18600
H2472       H  0.17559935  0.75124977  0.25800688     0.14500
C2473       C  0.15004794  0.79592504  0.03578279     0.29900
C2474       C  0.12581465  0.78410249  0.03011201    -0.36400
C2475       C  0.10756699  0.78427698  0.05072964     0.15900
C2476       C  0.11321171  0.79528372  0.07489180     0.21700
C2477       C  0.13738052  0.80610482  0.08077962    -0.34500
C2478       C  0.15535796  0.80594649  0.06046723     0.15800
O2479       O  0.16807245  0.80264183  0.01859409    -0.26500
C2480       C  0.18474499  0.81689363  0.03277567     0.05600
C2481       C  0.17801122  0.81915554  0.05892059    -0.31400
O2482       O  0.09372363  0.79421033  0.09121176    -0.23300
C2483       C  0.07513662  0.78204736  0.07784501    -0.03200
C2484       C  0.08240047  0.77525692  0.05234419    -0.17700
H2485       H  0.12105713  0.77669519  0.01074428     0.20300
H2486       H  0.14143991  0.81518750  0.09960401     0.18700
H2487       H  0.18633692  0.83207764  0.07360313     0.18600
H2488       H  0.07131441  0.76449113  0.03775518     0.14500
C2489       C  0.36709463  0.82230936  0.95888791     0.29900
C2490       C  0.39090861  0.82754133  0.94702888    -0.36400
C2491       C  0.40816818  0.80654928  0.94571747     0.15900
C2492       C  0.40257715  0.78185928  0.95543818     0.21700
C2493       C  0.37881772  0.77688631  0.96845465    -0.34500
C2494       C  0.36122873  0.79812842  0.96960295     0.15800
O2495       O  0.34777522  0.83893231  0.96028553    -0.26500
C2496       C  0.32908478  0.82567994  0.97228200     0.05600
C2497       C  0.33614989  0.80006851  0.97883346    -0.31400
O2498       O  0.41940097  0.76404067  0.94699450    -0.23300
C2499       C  0.43561919  0.77781641  0.93194882    -0.03200
C2500       C  0.42975358  0.80430746  0.93087281    -0.17700
H2501       H  0.39498328  0.84626665  0.93785500     0.20300
H2502       H  0.37367965  0.75749900  0.97541497     0.18700
H2503       H  0.32471480  0.78535869  0.98893229     0.18600
H2504       H  0.43767871  0.81894821  0.91773521     0.14500
C2505       C  0.29542204  0.96300802  0.15148239     0.29900
C2506       C  0.28125377  0.96817296  0.12829263    -0.36400
C2507       C  0.28246309  0.94841351  0.10895940     0.15900
C2508       C  0.29668756  0.92560914  0.11263666     0.21700
C2509       C  0.30969221  0.92005657  0.13583300    -0.34500
C2510       C  0.30833557  0.93937312  0.15493347     0.15800
O2511       O  0.30174560  0.98019661  0.16984600    -0.26500
C2512       C  0.31859160  0.96697039  0.18485014     0.05600
C2513       C  0.32275413  0.94137675  0.17685976    -0.31400
O2514       O  0.29595078  0.90989144  0.09253480    -0.23300
C2515       C  0.28066537  0.92212875  0.07555236    -0.03200
C2516       C  0.27157483  0.94643225  0.08442293    -0.17700
H2517       H  0.27129492  0.98667585  0.12502316     0.20300
H2518       H  0.32110911  0.90227419  0.13835412     0.18700
H2519       H  0.33754861  0.92772308  0.18370068     0.18600
H2520       H  0.25806647  0.95978773  0.07492058     0.14500
C2521       C  0.21137356  0.92238783  0.88452862     0.29900
C2522       C  0.19953417  0.91653777  0.86064726    -0.36400
C2523       C  0.19697019  0.93745286  0.84343035     0.15900
C2524       C  0.20589938  0.96246626  0.84905462     0.21700
C2525       C  0.21871642  0.96811783  0.87286346    -0.34500
C2526       C  0.22085712  0.94707973  0.89049146     0.15800
O2527       O  0.21330808  0.90609041  0.90406940    -0.26500
C2528       C  0.22429068  0.92012496  0.92302089     0.05600
C2529       C  0.22977828  0.94589268  0.91584725    -0.31400
O2530       O  0.19709004  0.97987202  0.83212836    -0.23300
C2531       C  0.18245377  0.96564692  0.81584961    -0.03200
C2532       C  0.18187817  0.93917561  0.82176615    -0.17700
H2533       H  0.19117751  0.89741217  0.85658863     0.20300
H2534       H  0.22475872  0.98783727  0.87803382     0.18700
H2535       H  0.23868198  0.96128522  0.92749680     0.18600
H2536       H  0.16940984  0.92411937  0.81349364     0.14500
C2537       C  0.26918016  0.79848431  0.83169338     0.29900
C2538       C  0.27948145  0.81908326  0.84691884    -0.36400
C2539       C  0.27227727  0.81945719  0.87357168     0.15900
C2540       C  0.25624293  0.80073559  0.88465997     0.21700
C2541       C  0.24606918  0.78004015  0.86947419    -0.34500
C2542       C  0.25304467  0.77982596  0.84276772     0.15800
O2543       O  0.27230189  0.79504104  0.80609956    -0.26500
C2544       C  0.25782587  0.77397847  0.80076475     0.05600
C2545       C  0.24547892  0.76370340  0.82278936    -0.31400
O2546       O  0.25082169  0.80579046  0.90958955    -0.23300
C2547       C  0.26356766  0.82806832  0.91454935    -0.03200
C2548       C  0.27722395  0.83741116  0.89283053    -0.17700
H2549       H  0.29164854  0.83420964  0.83841862     0.20300
H2550       H  0.23296185  0.76556331  0.87771817     0.18700
H2551       H  0.23248235  0.74696376  0.82375504     0.18600
H2552       H  0.28821989  0.85548337  0.89116863     0.14500
C2553       C  0.23199436  0.81726564  0.12540992     0.29900
C2554       C  0.22078309  0.81776036  0.15076572    -0.36400
C2555       C  0.23035547  0.79915270  0.16890534     0.15900
C2556       C  0.24977108  0.78139736  0.16248795     0.21700
C2557       C  0.26064861  0.78061942  0.13702989    -0.34500
C2558       C  0.25092933  0.79906225  0.11884551     0.15800
O2559       O  0.22716381  0.83393202  0.10604512    -0.26500
C2560       C  0.24282716  0.82612425  0.08649358     0.05600
C2561       C  0.25800628  0.80436938  0.09339410    -0.31400
O2562       O  0.25678081  0.76663125  0.18267920    -0.23300
C2563       C  0.24155392  0.77474360  0.20239813    -0.03200
C2564       C  0.22459648  0.79493419  0.19492634    -0.17700
H2565       H  0.20602782  0.83208388  0.15615739     0.20300
H2566       H  0.27605748  0.76689495  0.13190757     0.18700
H2567       H  0.27306038  0.79478090  0.08185661     0.18600
H2568       H  0.21059819  0.80535342  0.20705277     0.14500
C2569       C  0.41193519  0.96646217  0.00946744     0.29900
C2570       C  0.38502056  0.97028258  0.00447376    -0.36400
C2571       C  0.36862031  0.94840866  0.00835951     0.15900
C2572       C  0.37815166  0.92451376  0.01682515     0.21700
C2573       C  0.40503888  0.92070051  0.02183535    -0.34500
C2574       C  0.42143370  0.94248897  0.01774068     0.15800
O2575       O  0.43076462  0.98389809  0.00601305    -0.26500
C2576       C  0.45274805  0.97104751  0.01209366     0.05600
C2577       C  0.44808016  0.94511310  0.01954536    -0.31400
O2578       O  0.35966214  0.90648423  0.01842023    -0.23300
C2579       C  0.33780042  0.91876884  0.01086326    -0.03200
C2580       C  0.34223892  0.94499822  0.00428413    -0.17700
H2581       H  0.37747250  0.98890090  0.99751160     0.20300
H2582       H  0.41271665  0.90184600  0.02798835     0.18700
H2583       H  0.46226374  0.93025680  0.02497088     0.18600
H2584       H  0.32826605  0.95922522  0.99695879     0.14500
C2585       C  0.03968374  0.90063935  0.72092666     0.29900
C2586       C  0.02865970  0.87569886  0.72542531    -0.36400
C2587       C  0.02255276  0.86097662  0.70283487     0.15900
C2588       C  0.02668595  0.87065079  0.67785213     0.21700
C2589       C  0.03672821  0.89561602  0.67340229    -0.34500
C2590       C  0.04329372  0.90990901  0.69571508     0.15800
O2591       O  0.05139505  0.91562949  0.73854158    -0.26500
C2592       C  0.06243697  0.93445226  0.72420101     0.05600
C2593       C  0.05803355  0.93180308  0.69754963    -0.31400
O2594       O  0.02335125  0.85294670  0.65961293    -0.23300
C2595       C  0.01687650  0.83148012  0.67268697    -0.03200
C2596       C  0.01552871  0.83515328  0.69975503    -0.17700
H2597       H  0.02706379  0.86753082  0.74496473     0.20300
H2598       H  0.04128215  0.90247540  0.65381443     0.18700
H2599       H  0.06695896  0.94254369  0.68163045     0.18600
H2600       H  0.01182730  0.82065164  0.71480434     0.14500
C2601       C  0.95320951  0.64124515  0.67472859     0.29900
C2602       C  0.93918855  0.61863154  0.66920777    -0.36400
C2603       C  0.93900056  0.60000945  0.68892631     0.15900
C2604       C  0.95170639  0.60325663  0.71268368     0.21700
C2605       C  0.96654632  0.62591680  0.71797284    -0.34500
C2606       C  0.96668934  0.64486071  0.69797383     0.15800
O2607       O  0.95551570  0.66087268  0.65870525    -0.26500
C2608       C  0.97089736  0.67750434  0.67131349     0.05600
C2609       C  0.97858931  0.66887324  0.69609302    -0.31400
O2610       O  0.94516873  0.58495766  0.72967233    -0.23300
C2611       C  0.92825275  0.57026675  0.71630113    -0.03200
C2612       C  0.92405316  0.57845126  0.69081405    -0.17700
H2613       H  0.92834550  0.61618066  0.65108246     0.20300
H2614       H  0.97622647  0.62902457  0.73662567     0.18700
H2615       H  0.99180975  0.67814626  0.70986360     0.18600
H2616       H  0.90960873  0.57148063  0.67688580     0.14500
C2617       C  0.11535987  0.71044380  0.57410962     0.29900
C2618       C  0.13768329  0.69586369  0.57942817    -0.36400
C2619       C  0.15611697  0.69506508  0.55952683     0.15900
C2620       C  0.15299179  0.70767299  0.53572667     0.21700
C2621       C  0.13068345  0.72323820  0.53070223    -0.34500
C2622       C  0.11189394  0.72397083  0.55088598     0.15800
O2623       O  0.09545865  0.71238449  0.58987410    -0.26500
C2624       C  0.07870607  0.72751238  0.57709433     0.05600
C2625       C  0.08769798  0.73560576  0.55256890    -0.31400
O2626       O  0.17066272  0.69998110  0.51839523    -0.23300
C2627       C  0.18491195  0.68248389  0.53162852    -0.03200
C2628       C  0.17696550  0.67909542  0.55733054    -0.17700
H2629       H  0.13986179  0.68470472  0.59737525     0.20300
H2630       H  0.12750657  0.73270877  0.51195508     0.18700
H2631       H  0.07814950  0.74833203  0.53848763     0.18600
H2632       H  0.18331540  0.66427644  0.57117283     0.14500
C2633       C  0.86624324  0.83005327  0.53562616     0.29900
C2634       C  0.88906802  0.83432988  0.54985123    -0.36400
C2635       C  0.90578275  0.81287528  0.55189293     0.15900
C2636       C  0.90067307  0.78870946  0.54058516     0.21700
C2637       C  0.87784871  0.78460082  0.52564975    -0.34500
C2638       C  0.86079199  0.80623337  0.52378039     0.15800
O2639       O  0.84736310  0.84713715  0.53301939    -0.26500
C2640       C  0.82939743  0.83446278  0.51920027     0.05600
C2641       C  0.83653131  0.80884527  0.51264843    -0.31400
O2642       O  0.91724467  0.77046907  0.54862086    -0.23300
C2643       C  0.93286860  0.78342085  0.56508431    -0.03200
C2644       C  0.92668571  0.80977863  0.56768683    -0.17700
H2645       H  0.89282447  0.85273368  0.55988080     0.20300
H2646       H  0.87303136  0.76558051  0.51742875     0.18700
H2647       H  0.82546823  0.79438641  0.50169672     0.18600
H2648       H  0.93446629  0.82386404  0.58160124     0.14500
C2649       C  0.11390677  0.75893577  0.69863837     0.29900
C2650       C  0.12853538  0.74976346  0.72028851    -0.36400
C2651       C  0.15577184  0.75429921  0.71960681     0.15900
C2652       C  0.16792883  0.76698283  0.69905474     0.21700
C2653       C  0.15328674  0.77638189  0.67757404    -0.34500
C2654       C  0.12607555  0.77189494  0.67828497     0.15800
O2655       O  0.08848593  0.75535749  0.69432672    -0.26500
C2656       C  0.08421449  0.76639342  0.67091873     0.05600
C2657       C  0.10699383  0.77704223  0.66021884    -0.31400
O2658       O  0.19369120  0.76848538  0.70211979    -0.23300
C2659       C  0.19813725  0.75670879  0.72507660    -0.03200
C2660       C  0.17524622  0.74752131  0.73675337    -0.17700
H2661       H  0.11940621  0.73930086  0.73632016     0.20300
H2662       H  0.16253618  0.78611388  0.66115558     0.18700
H2663       H  0.10942177  0.78602951  0.64112822     0.18600
H2664       H  0.17334166  0.73719532  0.75521230     0.14500
C2665       C  0.00875291  0.63529776  0.55276856     0.29900
C2666       C  0.99814424  0.61949321  0.53273782    -0.36400
C2667       C  0.00517712  0.59274506  0.53301924     0.15900
C2668       C  0.02172314  0.58204596  0.55159023     0.21700
C2669       C  0.03244300  0.59791113  0.57165246    -0.34500
C2670       C  0.02522336  0.62473610  0.57148226     0.15800
O2671       O  0.00331573  0.66041943  0.55713990    -0.26500
C2672       C  0.01643300  0.66624048  0.57903111     0.05600
C2673       C  0.03044630  0.64472219  0.58875346    -0.31400
O2674       O  0.02508996  0.55632538  0.54832141    -0.23300
C2675       C  0.01042083  0.55061916  0.52736354    -0.03200
C2676       C  0.99763432  0.57250757  0.51717863    -0.17700
H2677       H  0.98475434  0.62738555  0.51826228     0.20300
H2678       H  0.04504936  0.58980932  0.58669953     0.18700
H2679       H  0.04176112  0.64363347  0.60670424     0.18600
H2680       H  0.98447263  0.57325676  0.50052100     0.14500
C2681       C  0.88194691  0.74352400  0.69105851     0.29900
C2682       C  0.86793241  0.74774333  0.71450850    -0.36400
C2683       C  0.84060643  0.74443690  0.71314850     0.15900
C2684       C  0.82773844  0.73789459  0.69022353     0.21700
C2685       C  0.84174051  0.73377034  0.66674079    -0.34500
C2686       C  0.86914202  0.73658869  0.66820911     0.15800
O2687       O  0.90759917  0.74574696  0.68779022    -0.26500
C2688       C  0.91141298  0.73978415  0.66253225     0.05600
C2689       C  0.88810231  0.73395672  0.64946945    -0.31400
O2690       O  0.80201459  0.73642415  0.69336161    -0.23300
C2691       C  0.79837948  0.74162469  0.71880684    -0.03200
C2692       C  0.82172278  0.74700422  0.73191375    -0.17700
H2693       H  0.87766120  0.75319891  0.73260656     0.20300
H2694       H  0.83196040  0.72866776  0.64856997     0.18700
H2695       H  0.88545138  0.72920609  0.62889740     0.18600
H2696       H  0.82426942  0.75275886  0.75224134     0.14500
C2697       C  0.90521828  0.97202459  0.50139605     0.29900
C2698       C  0.87990616  0.97182307  0.51229126    -0.36400
C2699       C  0.86096780  0.95705714  0.49872424     0.15900
C2700       C  0.86665342  0.94322877  0.47608515     0.21700
C2701       C  0.89183212  0.94393576  0.46484144    -0.34500
C2702       C  0.91076789  0.95873106  0.47840734     0.15800
O2703       O  0.92591393  0.98410464  0.51118657    -0.26500
C2704       C  0.94506198  0.97865441  0.49423549     0.05600
C2705       C  0.93676281  0.96287773  0.47341560    -0.31400
O2706       O  0.84701948  0.92814701  0.46847672    -0.23300
C2707       C  0.82826083  0.93265004  0.48616837    -0.03200
C2708       C  0.83578673  0.95075972  0.50528585    -0.17700
H2709       H  0.87547050  0.98189081  0.53051366     0.20300
H2710       H  0.89657522  0.93292504  0.44724424     0.18700
H2711       H  0.94813904  0.95590530  0.45686590     0.18600
H2712       H  0.82524948  0.95636783  0.52287488     0.14500
C2713       C  0.12708042  0.05823958  0.51099789     0.29900
C2714       C  0.11212918  0.03616054  0.50401692    -0.36400
C2715       C  0.08518556  0.03756804  0.50933941     0.15900
C2716       C  0.07347747  0.05920543  0.52080555     0.21700
C2717       C  0.08853699  0.08127578  0.52812128    -0.34500
C2718       C  0.11562122  0.07988571  0.52270482     0.15800
O2719       O  0.15230015  0.06160286  0.50619561    -0.26500
C2720       C  0.15734303  0.08576466  0.51495339     0.05600
C2721       C  0.13520489  0.09802289  0.52555754    -0.31400
O2722       O  0.04769331  0.05656836  0.52283451    -0.23300
C2723       C  0.04301587  0.03279365  0.51270644    -0.03200
C2724       C  0.06562136  0.02022244  0.50402760    -0.17700
H2725       H  0.12082174  0.01924628  0.49441759     0.20300
H2726       H  0.07967903  0.09857877  0.53680826     0.18700
H2727       H  0.13355108  0.11784067  0.53318129     0.18600
H2728       H  0.06724161  0.00117218  0.49461969     0.14500
C2729       C  0.05013805  0.99079886  0.58129832     0.29900
C2730       C  0.07356171  0.98636782  0.59505269    -0.36400
C2731       C  0.07233998  0.98885415  0.62254423     0.15900
C2732       C  0.04975615  0.99553010  0.63584719     0.21700
C2733       C  0.02618898  0.99972296  0.62207148    -0.34500
C2734       C  0.02735936  0.99701498  0.59450240     0.15800
O2735       O  0.04705013  0.99025498  0.55545827    -0.26500
C2736       C  0.02180388  0.99583217  0.55197957     0.05600
C2737       C  0.00868634  0.00033155  0.57559994    -0.31400
O2738       O  0.05356217  0.99789499  0.66157644    -0.23300
C2739       C  0.07892365  0.99237621  0.66470276    -0.03200
C2740       C  0.09138500  0.98653047  0.64105615    -0.17700
H2741       H  0.09162291  0.98162697  0.58498611     0.20300
H2742       H  0.00826383  0.00506850  0.63208530     0.18700
H2743       H  0.98839869  0.00586469  0.57831199     0.18600
H2744       H  0.11184297  0.98194652  0.63789346     0.14500
C2745       C  0.00147330  0.13845627  0.44833029     0.29900
C2746       C  0.98807916  0.12246331  0.46632977    -0.36400
C2747       C  0.99637020  0.09611713  0.46794023     0.15900
C2748       C  0.01659971  0.08603445  0.45302343     0.21700
C2749       C  0.02985536  0.10198830  0.43481154    -0.34500
C2750       C  0.02147500  0.12837066  0.43312241     0.15800
O2751       O  0.99597068  0.16327527  0.44266776    -0.26500
C2752       C  0.01263564  0.16930646  0.42348639     0.05600
C2753       C  0.02894718  0.14826338  0.41679920    -0.31400
O2754       O  0.02110688  0.06080016  0.45787821    -0.23300
C2755       C  0.00337384  0.05469040  0.47605508    -0.03200
C2756       C  0.98744995  0.07586046  0.48290320    -0.17700
H2757       H  0.97200017  0.12994418  0.47801255     0.20300
H2758       H  0.04541925  0.09430022  0.42257040     0.18700
H2759       H  0.04327526  0.14735223  0.40116729     0.18600
H2760       H  0.97163510  0.07620408  0.49703197     0.14500
C2761       C  0.98540869  0.92479965  0.55622300     0.29900
C2762       C  0.98513957  0.90974515  0.57925022    -0.36400
C2763       C  0.98643200  0.88236875  0.57595514     0.15900
C2764       C  0.98847192  0.87026463  0.55174922     0.21700
C2765       C  0.98855103  0.88540371  0.52855074    -0.34500
C2766       C  0.98670185  0.91295223  0.53183807     0.15800
O2767       O  0.98492942  0.95076979  0.55494492    -0.26500
C2768       C  0.98546098  0.95590553  0.52932091     0.05600
C2769       C  0.98654380  0.93304592  0.51404156    -0.31400
O2770       O  0.99019969  0.84422534  0.55366301    -0.23300
C2771       C  0.98877136  0.83982553  0.57948397    -0.03200
C2772       C  0.98635863  0.86287877  0.59407100    -0.17700
H2773       H  0.98405920  0.91877643  0.59850295     0.20300
H2774       H  0.98999512  0.87639148  0.50931311     0.18700
H2775       H  0.98802948  0.93156460  0.49286875     0.18600
H2776       H  0.98520532  0.86497155  0.61521687     0.14500
C2777       C  0.95313741  0.13655378  0.32569567     0.29900
C2778       C  0.94031715  0.11322959  0.33138788    -0.36400
C2779       C  0.93887897  0.09528638  0.31090588     0.15900
C2780       C  0.94911245  0.09991769  0.28624861     0.21700
C2781       C  0.96237177  0.12341940  0.28059317    -0.34500
C2782       C  0.96397372  0.14154143  0.30137728     0.15800
O2783       O  0.95674531  0.15561156  0.34239219    -0.26500
C2784       C  0.97030501  0.17318769  0.32901537     0.05600
C2785       C  0.97539123  0.16578605  0.30317539    -0.31400
O2786       O  0.94200326  0.08178303  0.26918490    -0.23300
C2787       C  0.92723618  0.06567732  0.28337479    -0.03200
C2788       C  0.92492502  0.07295142  0.30943975    -0.17700
H2789       H  0.93147592  0.10961644  0.35036620     0.20300
H2790       H  0.97006672  0.12760262  0.26125405     0.18700
H2791       H  0.98651617  0.17616929  0.28842066     0.18600
H2792       H  0.91208561  0.06489851  0.32424969     0.14500
C2793       C  0.78688691  0.04082530  0.09645190     0.29900
C2794       C  0.78087433  0.02719428  0.11970942    -0.36400
C2795       C  0.79992046  0.02844834  0.13959082     0.15900
C2796       C  0.82300974  0.04204691  0.13631136     0.21700
C2797       C  0.82940839  0.05456776  0.11303366    -0.34500
C2798       C  0.81063811  0.05336296  0.09343879     0.15800
O2799       O  0.77021842  0.04736576  0.07780119    -0.26500
C2800       C  0.78374154  0.06408858  0.06305471     0.05600
C2801       C  0.80912266  0.06793334  0.07151205    -0.31400
O2802       O  0.83790057  0.04151955  0.15701042    -0.23300
C2803       C  0.82472730  0.02709903  0.17402500    -0.03200
C2804       C  0.80071173  0.01832072  0.16449861    -0.17700
H2805       H  0.76214976  0.01778519  0.12268023     0.20300
H2806       H  0.84729746  0.06571324  0.11087234     0.18700
H2807       H  0.82282646  0.08280362  0.06514759     0.18600
H2808       H  0.78673020  0.00548719  0.17390272     0.14500
C2809       C  0.78938664  0.96349341  0.40835283     0.29900
C2810       C  0.81212054  0.97334444  0.39713868    -0.36400
C2811       C  0.81097856  0.97794316  0.37022646     0.15900
C2812       C  0.78877264  0.97410211  0.35517954     0.21700
C2813       C  0.76547734  0.96534288  0.36671317    -0.34500
C2814       C  0.76679962  0.96000898  0.39372846     0.15800
O2815       O  0.78847807  0.95174640  0.43121679    -0.26500
C2816       C  0.76494308  0.94106438  0.43153758     0.05600
C2817       C  0.75037715  0.94574384  0.40900054    -0.31400
O2818       O  0.79350882  0.97615886  0.32973551    -0.23300
C2819       C  0.81906549  0.98091265  0.32895208    -0.03200
C2820       C  0.83074739  0.98243863  0.35343392    -0.17700
H2821       H  0.83029101  0.97449148  0.40803271     0.20300
H2822       H  0.74841621  0.96053807  0.35506268     0.18700
H2823       H  0.73218221  0.93654595  0.40318961     0.18600
H2824       H  0.85126478  0.98509436  0.35807016     0.14500
C2825       C  0.94185991  0.83982197  0.20363129     0.29900
C2826       C  0.91848321  0.85336176  0.20732459    -0.36400
C2827       C  0.92097303  0.87806999  0.21881400     0.15900
C2828       C  0.94447289  0.88881353  0.22678895     0.21700
C2829       C  0.96789070  0.87464309  0.22400669    -0.34500
C2830       C  0.96558225  0.84984182  0.21203274     0.15800
O2831       O  0.94442497  0.81920461  0.18843361    -0.26500
C2832       C  0.97000829  0.81547918  0.18752319     0.05600
C2833       C  0.98426772  0.83362359  0.20202991    -0.31400
O2834       O  0.94200642  0.91360950  0.23428130    -0.23300
C2835       C  0.91669789  0.91836938  0.23047912    -0.03200
C2836       C  0.90277799  0.89690656  0.22123004    -0.17700
H2837       H  0.90042976  0.84634866  0.19979300     0.20300
H2838       H  0.98668223  0.88310972  0.22889235     0.18700
H2839       H  0.00530450  0.83655784  0.20208205     0.18600
H2840       H  0.88235810  0.89565294  0.21620451     0.14500
C2841       C  0.81883702  0.87398465  0.26911249     0.29900
C2842       C  0.82248971  0.84720767  0.27493244    -0.36400
C2843       C  0.80216937  0.83027401  0.26739878     0.15900
C2844       C  0.77976534  0.83921598  0.25514978     0.21700
C2845       C  0.77616742  0.86596809  0.24928585    -0.34500
C2846       C  0.79652468  0.88288525  0.25669540     0.15800
O2847       O  0.83588323  0.89292373  0.27319214    -0.26500
C2848       C  0.82444239  0.91431266  0.26331637     0.05600
C2849       C  0.79984538  0.90926685  0.25276105    -0.31400
O2850       O  0.76341313  0.82005320  0.24946465    -0.23300
C2851       C  0.77546971  0.79849122  0.25802006    -0.03200
C2852       C  0.79972241  0.80358082  0.26937421    -0.17700
H2853       H  0.84016298  0.84003635  0.28422983     0.20300
H2854       H  0.75885578  0.87302588  0.23923988     0.18700
H2855       H  0.78691515  0.92273771  0.24262223     0.18600
H2856       H  0.81348372  0.78966850  0.27763426     0.14500
C2857       C  0.82370361  0.12499869  0.23097306     0.29900
C2858       C  0.82756360  0.15202671  0.22697374    -0.36400
C2859       C  0.80597561  0.16839505  0.23190338     0.15900
C2860       C  0.78205845  0.15876092  0.23983652     0.21700
C2861       C  0.77808196  0.13165982  0.24358635    -0.34500
C2862       C  0.79983867  0.11530252  0.23902577     0.15800
O2863       O  0.84187975  0.10660073  0.22958821    -0.26500
C2864       C  0.82966055  0.08473861  0.23689936     0.05600
C2865       C  0.80336961  0.08892764  0.24292107    -0.31400
O2866       O  0.76491501  0.17767290  0.24438677    -0.23300
C2867       C  0.77802226  0.19972927  0.23942104    -0.03200
C2868       C  0.80368532  0.19515081  0.23153691    -0.17700
H2869       H  0.84641362  0.15984877  0.22133644     0.20300
H2870       H  0.75959253  0.12398006  0.25045283     0.18700
H2871       H  0.78933482  0.07489015  0.25032002     0.18600
H2872       H  0.81853561  0.20944108  0.22663048     0.14500
C2873       C  0.91875257  0.01681066  0.38039831     0.29900
C2874       C  0.91463990  0.02119683  0.40743802    -0.36400
C2875       C  0.93685396  0.01954437  0.42369847     0.15900
C2876       C  0.96144429  0.01406239  0.41395599     0.21700
C2877       C  0.96553254  0.00961023  0.38693210    -0.34500
C2878       C  0.94328966  0.01105487  0.37068070     0.15800
O2879       O  0.90063301  0.01671067  0.36186675    -0.26500
C2880       C  0.91356484  0.01061043  0.33989079     0.05600
C2881       C  0.94023454  0.00679686  0.34422954    -0.31400
O2882       O  0.97923442  0.01215597  0.43270968    -0.23300
C2883       C  0.96597287  0.01633788  0.45488375    -0.03200
C2884       C  0.93946800  0.02123686  0.45042973    -0.17700
H2885       H  0.89534727  0.02509933  0.41531392     0.20300
H2886       H  0.98466914  0.00474546  0.37919662     0.18700
H2887       H  0.95509998  0.00144341  0.33004862     0.18600
H2888       H  0.92421031  0.02437084  0.46484054     0.14500
C2889       C  0.10316250  0.28260717  0.95251381     0.29900
C2890       C  0.12726503  0.27783293  0.96521804    -0.36400
C2891       C  0.14457440  0.29931556  0.96639358     0.15900
C2892       C  0.13816225  0.32350387  0.95595549     0.21700
C2893       C  0.11408126  0.32846687  0.94428487    -0.34500
C2894       C  0.09711051  0.30725837  0.94295511     0.15800
O2895       O  0.08598433  0.26477343  0.94480348    -0.26500
C2896       C  0.06902843  0.27851406  0.93035208     0.05600
C2897       C  0.07491036  0.30498922  0.92887679    -0.31400
O2898       O  0.15709525  0.34053416  0.95768751    -0.23300
C2899       C  0.17616527  0.32757202  0.96960580    -0.03200
C2900       C  0.16964924  0.30169664  0.97576904    -0.17700
H2901       H  0.13270708  0.25853916  0.97220360     0.20300
H2902       H  0.10947686  0.34725539  0.93551541     0.18700
H2903       H  0.06613751  0.31967631  0.91640294     0.18600
H2904       H  0.18136714  0.28713616  0.98583183     0.14500
C2905       C  0.07311374  0.11445486  0.79196523     0.29900
C2906       C  0.07819265  0.13892731  0.80280509    -0.36400
C2907       C  0.05728253  0.15628962  0.80312836     0.15900
C2908       C  0.03276777  0.15017235  0.79345652     0.21700
C2909       C  0.02795964  0.12572632  0.78135436    -0.34500
C2910       C  0.04915685  0.10806293  0.78117567     0.15800
O2911       O  0.08977525  0.09508158  0.79144274    -0.26500
C2912       C  0.07678646  0.07581161  0.77991335     0.05600
C2913       C  0.05131313  0.08256653  0.77280604    -0.31400
O2914       O  0.01494914  0.16732200  0.80121766    -0.23300
C2915       C  0.02857186  0.18428397  0.81574562    -0.03200
C2916       C  0.05493395  0.17856074  0.81713859    -0.17700
H2917       H  0.09676585  0.14348977  0.81198062     0.20300
H2918       H  0.00872645  0.12021063  0.77438340     0.18700
H2919       H  0.03688994  0.07072312  0.76269421     0.18600
H2920       H  0.06939713  0.18698125  0.83017919     0.14500
C2921       C  0.96100894  0.36670344  0.82505631     0.29900
C2922       C  0.94921984  0.39083571  0.82973852    -0.36400
C2923       C  0.94716939  0.40722319  0.80815874     0.15900
C2924       C  0.95635076  0.40062707  0.78346966     0.21700
C2925       C  0.96910762  0.37648911  0.77894091    -0.34500
C2926       C  0.97085306  0.35971443  0.80074788     0.15800
O2927       O  0.96279182  0.34794391  0.84228693    -0.26500
C2928       C  0.97406662  0.32848028  0.82925241     0.05600
C2929       C  0.97983476  0.33448518  0.80322375    -0.31400
O2930       O  0.94784734  0.41705955  0.76537954    -0.23300
C2931       C  0.93321142  0.43396426  0.77897494    -0.03200
C2932       C  0.93232322  0.42888215  0.80555885    -0.17700
H2933       H  0.94061887  0.39574980  0.84856096     0.20300
H2934       H  0.97548504  0.37050064  0.75955190     0.18700
H2935       H  0.98904108  0.32217722  0.78849913     0.18600
H2936       H  0.91962240  0.43755447  0.82021444     0.14500
C2937       C  0.88495751  0.21161330  0.93043496     0.29900
C2938       C  0.85951076  0.20335702  0.92591858    -0.36400
C2939       C  0.84415525  0.20031396  0.94811680     0.15900
C2940       C  0.85315843  0.20458272  0.97333602     0.21700
C2941       C  0.87878836  0.21370818  0.97786533    -0.34500
C2942       C  0.89429272  0.21710588  0.95531018     0.15800
O2943       O  0.90248761  0.21469177  0.91218499    -0.26500
C2944       C  0.92347873  0.22270252  0.92509533     0.05600
C2945       C  0.91977997  0.22474866  0.95212757    -0.31400
O2946       O  0.83678258  0.19534578  0.99109722    -0.23300
C2947       C  0.81725079  0.18552463  0.97675229    -0.03200
C2948       C  0.82082048  0.18844701  0.95006671    -0.17700
H2949       H  0.85251998  0.19845108  0.90641444     0.20300
H2950       H  0.88647551  0.21657370  0.99747718     0.18700
H2951       H  0.93360517  0.23099902  0.96698186     0.18600
H2952       H  0.81010662  0.17917475  0.93432187     0.14500
C2953       C  0.12445897  0.23243103  0.82084522     0.29900
C2954       C  0.15038467  0.22290385  0.82167943    -0.36400
C2955       C  0.16764618  0.23267572  0.80251045     0.15900
C2956       C  0.15991544  0.25080177  0.78394505     0.21700
C2957       C  0.13395696  0.26022761  0.78302224    -0.34500
C2958       C  0.11663465  0.25021631  0.80200096     0.15800
O2959       O  0.10547147  0.22667591  0.83750042    -0.26500
C2960       C  0.08498377  0.24065609  0.82911594     0.05600
C2961       C  0.09081231  0.25562675  0.80697027    -0.31400
O2962       O  0.17926508  0.25763390  0.76815538    -0.23300
C2963       C  0.19971677  0.24355006  0.77644917    -0.03200
C2964       C  0.19364259  0.22768607  0.79787037    -0.17700
H2965       H  0.15671821  0.20898166  0.83642551     0.20300
H2966       H  0.12773774  0.27451231  0.76858078     0.18700
H2967       H  0.07821373  0.26936051  0.79676558     0.18600
H2968       H  0.20653705  0.21457614  0.80851018     0.14500
C2969       C  0.00891837  0.36586741  0.95013411     0.29900
C2970       C  0.00413657  0.38108984  0.97286495    -0.36400
C2971       C  0.00798594  0.40848914  0.97050033     0.15900
C2972       C  0.01565779  0.42017197  0.94730245     0.21700
C2973       C  0.02068519  0.40499968  0.92484213    -0.34500
C2974       C  0.01724354  0.37775133  0.92730023     0.15800
O2975       O  0.00539767  0.34009141  0.94718350    -0.26500
C2976       C  0.01193699  0.33556051  0.92214992     0.05600
C2977       C  0.01958155  0.35833621  0.90916001    -0.31400
O2978       O  0.01703848  0.44610081  0.94902514    -0.23300
C2979       C  0.01059234  0.45124094  0.97383689    -0.03200
C2980       C  0.00472384  0.42859913  0.98803958    -0.17700
H2981       H  0.99749813  0.37227693  0.99102721     0.20300
H2982       H  0.02659447  0.41393977  0.90638598     0.18700
H2983       H  0.02498337  0.36048891  0.88862845     0.18600
H2984       H  0.99827721  0.42729713  0.00840576     0.14500
C2985       C  0.88138653  0.26380201  0.80459745     0.29900
C2986       C  0.86699460  0.25953523  0.78131627    -0.36400
C2987       C  0.83957867  0.26259901  0.78300586     0.15900
C2988       C  0.82696609  0.26921600  0.80604634     0.21700
C2989       C  0.84139558  0.27396839  0.82922180    -0.34500
C2990       C  0.86884697  0.27108826  0.82747818     0.15800
O2991       O  0.90699013  0.26032235  0.80791576    -0.26500
C2992       C  0.91106761  0.26575609  0.83328797     0.05600
C2993       C  0.88795256  0.27272957  0.84624264    -0.31400
O2994       O  0.80105930  0.26948236  0.80347286    -0.23300
C2995       C  0.79699163  0.26330132  0.77826495    -0.03200
C2996       C  0.82031895  0.25888067  0.76471720    -0.17700
H2997       H  0.87645345  0.25356358  0.76323383     0.20300
H2998       H  0.83184119  0.27894354  0.84754552     0.18700
H2999       H  0.88540382  0.27706889  0.86691770     0.18600
H3000       H  0.82264009  0.25295093  0.74441123     0.14500
C3001       C  0.87790206  0.07432200  0.01958000     0.29900
C3002       C  0.90410703  0.07632801  0.02805123    -0.36400
C3003       C  0.92090864  0.05544775  0.02108544     0.15900
C3004       C  0.91246024  0.03404130  0.00675739     0.21700
C3005       C  0.88623211  0.03192123  0.99848710    -0.34500
C3006       C  0.86944741  0.05279616  0.00544168     0.15800
O3007       O  0.85927435  0.09220607  0.02271500    -0.26500
C3008       C  0.83848359  0.08205223  0.01049072     0.05600
C3009       C  0.84371299  0.05745717  0.99948772    -0.31400
O3010       O  0.93161390  0.01732428  0.00144744    -0.23300
C3011       C  0.95269130  0.02799482  0.01261801    -0.03200
C3012       C  0.94718074  0.05175782  0.02516116    -0.17700
H3013       H  0.91105849  0.09329469  0.03883481     0.20300
H3014       H  0.87950280  0.01538065  0.98691702     0.18700
H3015       H  0.83070791  0.04523523  0.98796956     0.18600
H3016       H  0.96067924  0.06468273  0.03522354     0.14500
C3017       C  0.05849302  0.01258477  0.87168018     0.29900
C3018       C  0.03468504  0.01233511  0.88553821    -0.36400
C3019       C  0.03644595  0.01338116  0.91312409     0.15900
C3020       C  0.05996836  0.01441702  0.92635186     0.21700
C3021       C  0.08381380  0.01485706  0.91249383    -0.34500
C3022       C  0.08205312  0.01405776  0.88485493     0.15800
O3023       O  0.06143677  0.01075515  0.84585580    -0.26500
C3024       C  0.08727600  0.01142075  0.84232755     0.05600
C3025       C  0.10100686  0.01351936  0.86595276    -0.31400
O3026       O  0.05698114  0.01380622  0.95222795    -0.23300
C3027       C  0.03111195  0.01272003  0.95570530    -0.03200
C3028       C  0.01752026  0.01220340  0.93193671    -0.17700
H3029       H  0.01604907  0.01096241  0.87552066     0.20300
H3030       H  0.10247445  0.01533821  0.92256107     0.18700
H3031       H  0.12200074  0.01373309  0.86880397     0.18600
H3032       H  0.99669000  0.00988937  0.92893996     0.14500
C3033       C  0.01852993  0.92282488  0.05882170     0.29900
C3034       C  0.02336467  0.90869804  0.08204966    -0.36400
C3035       C  0.01931737  0.88136165  0.08084146     0.15900
C3036       C  0.01088440  0.86867105  0.05839139     0.21700
C3037       C  0.00645595  0.88275686  0.03506815    -0.34500
C3038       C  0.01063991  0.91007281  0.03618649     0.15800
O3039       O  0.01967981  0.94868248  0.05592400    -0.26500
C3040       C  0.01279333  0.95253959  0.03094974     0.05600
C3041       C  0.00698593  0.92921650  0.01791587    -0.31400
O3042       O  0.00656597  0.84329187  0.06226157    -0.23300
C3043       C  0.01254204  0.83961762  0.08750190    -0.03200
C3044       C  0.02075408  0.86262484  0.09989244    -0.17700
H3045       H  0.02922171  0.91843464  0.10003900     0.20300
H3046       H  0.99945751  0.87308560  0.01721132     0.18700
H3047       H  0.99993334  0.92682086  0.99749472     0.18600
H3048       H  0.02586101  0.86537781  0.12039521     0.14500
C3049       C  0.08143092  0.94585949  0.98855783     0.29900
C3050       C  0.09529544  0.92258550  0.98265313    -0.36400
C3051       C  0.12265034  0.92324654  0.98634211     0.15900
C3052       C  0.13561992  0.94515741  0.99554032     0.21700
C3053       C  0.12175711  0.96849228  0.00132516    -0.34500
C3054       C  0.09440824  0.96792695  0.99736642     0.15800
O3055       O  0.05571335  0.94943243  0.98706264    -0.26500
C3056       C  0.05207722  0.97431783  0.99468715     0.05600
C3057       C  0.07552851  0.98663544  0.00143052    -0.31400
O3058       O  0.16112020  0.94095339  0.99869892    -0.23300
C3059       C  0.16462934  0.91601200  0.99116345    -0.03200
C3060       C  0.14129557  0.90418772  0.98321222    -0.17700
H3061       H  0.08540582  0.90504564  0.97589534     0.20300
H3062       H  0.13157266  0.98584069  0.00870520     0.18700
H3063       H  0.07815243  0.00643961  0.00880169     0.18600
H3064       H  0.13835086  0.88406363  0.97695471     0.14500
C3065       C  0.96664290  0.98989711  0.09223203     0.29900
C3066       C  0.96936044  0.99340758  0.11959386    -0.36400
C3067       C  0.94683339  0.98922616  0.13495521     0.15900
C3068       C  0.92321643  0.98189207  0.12414048     0.21700
C3069       C  0.92046397  0.97844219  0.09671005    -0.34500
C3070       C  0.94299424  0.98280179  0.08131589     0.15800
O3071       O  0.98494582  0.99387932  0.07429586    -0.26500
C3072       C  0.97301334  0.98944240  0.05138148     0.05600
C3073       C  0.94680954  0.98239290  0.05460559    -0.31400
O3074       O  0.90455428  0.97966384  0.14208783    -0.23300
C3075       C  0.91627628  0.98563239  0.16484000    -0.03200
C3076       C  0.94262426  0.99187140  0.16146005    -0.17700
H3077       H  0.98771634  0.99947131  0.12828240     0.20300
H3078       H  0.90189946  0.97318600  0.08792686     0.18700
H3079       H  0.93252273  0.97819561  0.03947651     0.18600
H3080       H  0.95650272  0.99805521  0.17629329     0.14500
C3081       C  0.98859387  0.13390634  0.94658567     0.29900
C3082       C  0.99454611  0.12049735  0.97008555    -0.36400
C3083       C  0.99100646  0.09299428  0.96989557     0.15900
C3084       C  0.98195238  0.07954144  0.94817727     0.21700
C3085       C  0.97550018  0.09301683  0.92486402    -0.34500
C3086       C  0.97925847  0.12048757  0.92496460     0.15800
O3087       O  0.99256522  0.15921024  0.94170499    -0.26500
C3088       C  0.98551954  0.16221192  0.91660425     0.05600
C3089       C  0.97695837  0.13870540  0.90532297    -0.31400
O3090       O  0.98176796  0.05369665  0.95172117    -0.23300
C3091       C  0.99090699  0.05040899  0.97606576    -0.03200
C3092       C  0.99677658  0.07427041  0.98829435    -0.17700
H3093       H  0.00239068  0.13067191  0.98704302     0.20300
H3094       H  0.96893305  0.08265981  0.90748007     0.18700
H3095       H  0.97114970  0.13527473  0.88515400     0.18600
H3096       H  0.00498127  0.07725994  0.00768464     0.14500
loop_ 
_geom_bond_atom_site_label_1 
_geom_bond_atom_site_label_2 
_geom_bond_distance 
_geom_bond_site_symmetry_2 
_ccdc_geom_bond_type 
C1            C2   1.429   1_565  A
C1            C6   1.425   1_556  A
C1         C3056   1.505       .  S
C2            C3   1.430   1_455  A
C2         C3027   1.501       .  S
C3            C4   1.424   1_556  A
C3         C3091   1.505       .  S
C4            C5   1.424   1_545  A
C4         C3011   1.494       .  S
C5            C6   1.424   1_655  A
C5         C3072   1.502       .  S
C6         C3040   1.493       .  S
O7           C15   1.276       .  A
O7          Co27   2.014       .  S
O8           C16   1.273       .  A
O8          Co28   2.001       .  S
O9           C17   1.267       .  A
O9          Co29   1.999       .  S
O10          C18   1.263       .  A
O10         Co30   1.978       .  S
O11          C17   1.270       .  A
O11         Co28   2.036       .  S
O12          C18   1.269       .  A
O12         Co27   2.034       .  S
O13          C16   1.264       .  A
O13         Co30   1.962   1_655  S
O14          C15   1.260   1_655  A
O14         Co29   1.948       .  S
C15        C2915   1.448       .  S
C16        C2928   1.448       .  S
C17        C2992   1.497       .  S
C18        C2960   1.487       .  S
O19          C32   1.264       .  A
O19         Co27   1.963       .  S
O20          C33   1.266       .  A
O20         Co28   1.969       .  S
O21          C34   1.273       .  A
O21         Co29   2.047       .  S
O22          C35   1.267       .  A
O22         Co30   2.013       .  S
O23          C35   1.268   1_655  A
O23         Co28   2.000       .  S
O24          C34   1.263   1_455  A
O24         Co27   1.985       .  S
O25          C32   1.275       .  A
O25         Co30   2.016       .  S
O26          C33   1.271       .  A
O26         Co29   1.994       .  S
Co27         O31   2.103   1_455  S
Co28         O31   2.108       .  S
Co29         O31   2.109       .  S
Co30         O31   2.100   1_455  S
C32        C2896   1.458       .  S
C33        C2944   1.450       .  S
C34        C3088   1.494       .  S
C35        C2976   1.489       .  S
O36          C44   1.270       .  A
O36         Co56   1.989       .  S
O37          C45   1.274       .  A
O37         Co57   2.015       .  S
O38          C46   1.268       .  A
O38         Co58   1.989       .  S
O39          C47   1.262       .  A
O39         Co59   1.976       .  S
O40          C46   1.264       .  A
O40         Co57   2.006       .  S
O41          C47   1.269       .  A
O41         Co56   2.029       .  S
O42          C45   1.262       .  A
O42         Co59   1.964   1_565  S
O43          C44   1.265       .  A
O43         Co58   1.968   1_545  S
C44        C2803   1.450       .  S
C45        C2819   1.454       .  S
C46        C2848   1.473       .  S
C47        C2864   1.476       .  S
O48          C61   1.261       .  A
O48         Co56   1.946       .  S
O49          C62   1.266       .  A
O49         Co57   1.967       .  S
O50          C63   1.270       .  A
O50         Co58   2.041       .  S
O51          C64   1.268       .  A
O51         Co59   2.033       .  S
O52          C64   1.268   1_565  A
O52         Co57   1.993       .  S
O53          C63   1.268       .  A
O53         Co56   1.992   1_565  S
O54          C61   1.275       .  A
O54         Co59   2.012       .  S
O55          C62   1.272       .  A
O55         Co58   1.987       .  S
Co56         O60   2.098   1_545  S
Co57         O60   2.106       .  S
Co58         O60   2.106       .  S
Co59         O60   2.092   1_545  S
C61        C2787   1.445       .  S
C62        C2835   1.452       .  S
C63        C3075   1.495       .  S
C64        C2880   1.486       .  S
C65          C66   1.421   1_565  A
C65          C70   1.420       .  A
C65        C2704   1.492       .  S
C66          C67   1.420   1_655  A
C66        C2883   1.494       .  S
C67          C68   1.420       .  A
C67        C2755   1.491       .  S
C68          C69   1.422   1_545  A
C68        C2723   1.493       .  S
C69          C70   1.423   1_455  A
C69        C2736   1.494       .  S
C70        C2768   1.498       .  S
O71          C79   1.272       .  A
O71         Co91   2.001       .  S
O72          C80   1.269       .  A
O72         Co92   1.982       .  S
O73          C81   1.264       .  A
O73         Co93   1.984       .  S
O74          C82   1.269       .  A
O74         Co94   1.995       .  S
O75          C81   1.271       .  A
O75         Co92   2.039       .  S
O76          C82   1.270       .  A
O76         Co91   2.029       .  S
O77          C80   1.265       .  A
O77         Co94   1.967   1_655  S
O78          C79   1.266   1_655  A
O78         Co93   1.969       .  S
C79        C2595   1.453       .  S
C80        C2608   1.445       .  S
C81        C2688   1.489       .  S
C82        C2656   1.494       .  S
O83          C96   1.266       .  A
O83         Co91   1.969       .  S
O84          C97   1.263       .  A
O84         Co92   1.957       .  S
O85          C98   1.269       .  A
O85         Co93   2.019       .  S
O86          C99   1.271       .  A
O86         Co94   2.033       .  S
O87          C99   1.267       .  A
O87         Co92   1.987   1_455  S
O88          C98   1.267   1_455  A
O88         Co91   1.994       .  S
O89          C96   1.271       .  A
O89         Co94   1.991       .  S
O90          C97   1.274       .  A
O90         Co93   2.012       .  S
Co91         O95   2.109   1_455  S
Co92         O95   2.103       .  S
Co93         O95   2.098       .  S
Co94         O95   2.106   1_455  S
C96        C2624   1.451       .  S
C97        C2643   1.452       .  S
C98        C2771   1.484       .  S
C99        C2672   1.489       .  S
O100        C108   1.274       .  A
O100       Co120   2.009       .  S
O101        C109   1.272       .  A
O101       Co121   1.994       .  S
O102        C110   1.264       .  A
O102       Co122   1.979       .  S
O103        C111   1.270       .  A
O103       Co123   1.990       .  S
O104        C110   1.269       .  A
O104       Co121   2.024       .  S
O105        C111   1.271       .  A
O105       Co120   2.037       .  S
O106        C109   1.264       .  A
O106       Co123   1.963   1_556  S
O107        C108   1.258       .  A
O107       Co122   1.944   1_554  S
C108       C2480   1.444       .  S
C109       C2496   1.447       .  S
C110       C2547   1.477       .  S
C111       C2560   1.492       .  S
O112        C125   1.264       .  A
O112       Co120   1.968       .  S
O113        C126   1.267       .  A
O113       Co121   1.970       .  S
O114        C127   1.271       .  A
O114       Co122   2.035       .  S
O115        C128   1.269       .  A
O115       Co123   2.029       .  S
O116        C128   1.271   1_556  A
O116       Co121   1.998       .  S
O117        C127   1.266   1_554  A
O117       Co120   1.993       .  S
O118        C125   1.270       .  A
O118       Co123   1.983       .  S
O119        C126   1.269       .  A
O119       Co122   1.984       .  S
Co120       O124   2.102       .  S
Co121       O124   2.108   1_556  S
Co122       O124   2.098   1_556  S
Co123       O124   2.099       .  S
C125       C2515   1.446       .  S
C126       C2528   1.450       .  S
C127       C3059   1.493       .  S
C128       C2579   1.490       .  S
O129        C137   1.260       .  A
O129       Co149   1.940   1_655  S
O130        C138   1.264       .  A
O130       Co150   1.959   1_455  S
O131        C139   1.269       .  A
O131       Co151   2.029       .  S
O132        C140   1.270       .  A
O132       Co152   2.035       .  S
O133        C139   1.265       .  A
O133       Co150   1.980       .  S
O134        C140   1.265       .  A
O134       Co149   1.989       .  S
O135        C138   1.270       .  A
O135       Co152   1.985       .  S
O136        C137   1.275       .  A
O136       Co151   2.017       .  S
C137       C2832   1.441       .  S
C138       C2419   1.441       .  S
C139       C2451   1.483       .  S
C140       C2464   1.489       .  S
O141        C154   1.271       .  A
O141       Co149   1.989       .  S
O142        C155   1.273       .  A
O142       Co150   2.001       .  S
O143        C156   1.263   1_655  A
O143       Co151   1.985       .  S
O144        C157   1.270   1_455  A
O144       Co152   1.993       .  S
O145        C157   1.268       .  A
O145       Co150   2.025       .  S
O146        C156   1.269       .  A
O146       Co149   2.029       .  S
O147        C154   1.266       .  A
O147       Co152   1.966       .  S
O148        C155   1.264       .  A
O148       Co151   1.962       .  S
Co149       O153   2.098       .  S
Co150       O153   2.100   1_655  S
Co151       O153   2.103   1_655  S
Co152       O153   2.106       .  S
C154       C2483   1.448       .  S
C155       C2400   1.453       .  S
C156       C3043   1.483       .  S
C157       C2432   1.488       .  S
C158        C159   1.424       .  A
C158        C163   1.425       .  A
C158       C2368   1.503       .  S
C159        C160   1.425       .  A
C159       C2467   1.495       .  S
C160        C161   1.425       .  A
C160       C2563   1.498       .  S
C161        C162   1.426       .  A
C161       C2352   1.502       .  S
C162        C163   1.425       .  A
C162       C2336   1.501       .  S
C163       C2387   1.491       .  S
O164        C172   1.263       .  A
O164       Co184   1.958       .  S
O165        C173   1.266       .  A
O165       Co185   1.966       .  S
O166        C174   1.267       .  A
O166       Co186   2.023       .  S
O167        C175   1.268       .  A
O167       Co187   2.030       .  S
O168        C174   1.268       .  A
O168       Co185   1.986       .  S
O169        C175   1.262       .  A
O169       Co184   1.978       .  S
O170        C173   1.273       .  A
O170       Co187   1.998       .  S
O171        C172   1.274       .  A
O171       Co186   2.008       .  S
C172       C2627   1.452       .  S
C173       C2272   1.450       .  S
C174       C2323   1.481       .  S
C175       C2384   1.478       .  S
O176        C189   1.275       .  A
O176       Co184   2.010       .  S
O177        C190   1.272       .  A
O177       Co185   1.996       .  S
O178        C191   1.264       .  A
O178       Co186   1.979       .  S
O179        C192   1.267       .  A
O179       Co187   1.998       .  S
O180        C192   1.267       .  A
O180       Co185   2.021       .  S
O181        C191   1.269       .  A
O181       Co184   2.033       .  S
O182        C189   1.263       .  A
O182       Co187   1.950       .  S
O183        C190   1.264       .  A
O183       Co186   1.961       .  S
Co184       O188   2.099       .  S
Co185       O188   2.102       .  S
Co186       O188   2.096       .  S
Co187       O188   2.106       .  S
C189       C2243   1.447       .  S
C190       C2259   1.445       .  S
C191       C2307   1.483       .  S
C192       C2288   1.490       .  S
C193        C194   1.422       .  A
C193        C198   1.419       .  A
C193       C2208   1.497       .  S
C194        C195   1.420       .  A
C194       C2320   1.486       .  S
C195        C196   1.420       .  A
C195       C2659   1.498       .  S
C196        C197   1.424       .  A
C196       C2192   1.499       .  S
C197        C198   1.421       .  A
C197       C2544   1.484       .  S
C198       C2224   1.498       .  S
O199        C207   1.275       .  A
O199       Co219   2.007       .  S
O200        C208   1.273       .  A
O200       Co220   1.990       .  S
O201        C209   1.259       .  A
O201       Co221   1.971       .  S
O202        C210   1.268       .  A
O202       Co222   1.992       .  S
O203        C209   1.269       .  A
O203       Co220   2.039       .  S
O204        C210   1.269       .  A
O204       Co219   2.030       .  S
O205        C208   1.268       .  A
O205       Co222   1.967       .  S
O206        C207   1.262       .  A
O206       Co221   1.953       .  S
C207       C2499   1.448       .  S
C208       C2115   1.455       .  S
C209       C2147   1.480       .  S
C210       C2176   1.490       .  S
O211        C224   1.264       .  A
O211       Co219   1.958       .  S
O212        C225   1.260       .  A
O212       Co220   1.942       .  S
O213        C226   1.266       .  A
O213       Co221   2.023       .  S
O214        C227   1.266       .  A
O214       Co222   2.017       .  S
O215        C227   1.265       .  A
O215       Co220   1.994       .  S
O216        C226   1.265       .  A
O216       Co219   1.990       .  S
O217        C224   1.274       .  A
O217       Co222   1.994       .  S
O218        C225   1.277       .  A
O218       Co221   2.020       .  S
Co219       O223   2.099       .  S
Co220       O223   2.104       .  S
Co221       O223   2.093       .  S
Co222       O223   2.101       .  S
C224       C2096   1.444       .  S
C225       C2128   1.446       .  S
C226       C2227   1.483       .  S
C227       C2160   1.484       .  S
C228        C229   1.426       .  A
C228        C233   1.427       .  A
C228       C2035   1.494       .  S
C229        C230   1.425       .  A
C229       C2995   1.504       .  S
C230        C231   1.424       .  A
C230       C2083   1.494       .  S
C231        C232   1.422       .  A
C231       C2067   1.496       .  S
C232        C233   1.427       .  A
C232       C2051   1.501       .  S
C233       C2019   1.502       .  S
O234        C242   1.275       .  A
O234       Co254   2.016       .  S
O235        C243   1.275       .  A
O235       Co255   2.009       .  S
O236        C244   1.263       .  A
O236       Co256   1.977       .  S
O237        C245   1.266       .  A
O237       Co257   1.993       .  S
O238        C244   1.267       .  A
O238       Co255   2.027       .  S
O239        C245   1.269       .  A
O239       Co254   2.034       .  S
O240        C243   1.260       .  A
O240       Co257   1.943       .  S
O241        C242   1.259       .  A
O241       Co256   1.943       .  S
C242       C2931   1.445       .  S
C243       C2611   1.442       .  S
C244       C1971   1.474       .  S
C245       C1984   1.489       .  S
O246        C259   1.266       .  A
O246       Co254   1.970       .  S
O247        C260   1.266       .  A
O247       Co255   1.969       .  S
O248        C261   1.269       .  A
O248       Co256   2.029       .  S
O249        C262   1.270       .  A
O249       Co257   2.033       .  S
O250        C262   1.266       .  A
O250       Co255   1.988       .  S
O251        C261   1.265       .  A
O251       Co254   1.988       .  S
O252        C259   1.270       .  A
O252       Co257   1.983       .  S
O253        C260   1.271       .  A
O253       Co256   1.988       .  S
Co254       O258   2.101       .  S
Co255       O258   2.108       .  S
Co256       O258   2.099       .  S
Co257       O258   2.100       .  S
C259       C1952   1.448       .  S
C260       C1936   1.450       .  S
C261       C2080   1.486       .  S
C262       C2000   1.489       .  S
O263        C271   1.264       .  A
O263       Co283   1.974   1_655  S
O264        C272   1.260       .  A
O264       Co284   1.961   1_455  S
O265        C273   1.273       .  A
O265       Co285   2.037       .  S
O266        C274   1.274       .  A
O266       Co286   2.036       .  S
O267        C273   1.266       .  A
O267       Co284   1.976       .  S
O268        C274   1.269       .  A
O268       Co283   1.980       .  S
O269        C272   1.268       .  A
O269       Co286   1.994       .  S
O270        C271   1.266       .  A
O270       Co285   1.985       .  S
C271       C2784   1.450       .  S
C272       C1875   1.446       .  S
C273       C1907   1.481       .  S
C274       C1920   1.485       .  S
O275        C288   1.267       .  A
O275       Co283   1.980       .  S
O276        C289   1.268       .  A
O276       Co284   1.987       .  S
O277        C290   1.269   1_655  A
O277       Co285   1.984       .  S
O278        C291   1.271   1_455  A
O278       Co286   1.999       .  S
O279        C291   1.273       .  A
O279       Co284   2.035       .  S
O280        C290   1.273       .  A
O280       Co283   2.031       .  S
O281        C288   1.264       .  A
O281       Co286   1.973       .  S
O282        C289   1.263       .  A
O282       Co285   1.963       .  S
Co283       O287   2.100   1_455  S
Co284       O287   2.096       .  S
Co285       O287   2.103       .  S
Co286       O287   2.108   1_455  S
C288       C1859   1.447       .  S
C289       C1840   1.447       .  S
C290       C2752   1.485       .  S
C291       C1888   1.492       .  S
C292        C293   1.425       .  A
C292        C297   1.423       .  A
C292       C1760   1.493       .  S
C293        C294   1.419       .  A
C293       C1923   1.492       .  S
C294        C295   1.421       .  A
C294       C1776   1.503       .  S
C295        C296   1.423       .  A
C295       C1808   1.486       .  S
C296        C297   1.420       .  A
C296       C1795   1.498       .  S
C297       C1824   1.496       .  S
O298        C306   1.266       .  A
O298       Co318   1.967   1_556  S
O299        C307   1.262   1_556  A
O299       Co319   1.950       .  S
O300        C308   1.267       .  A
O300       Co320   2.024       .  S
O301        C309   1.269       .  A
O301       Co321   2.031       .  S
O302        C308   1.263       .  A
O302       Co319   1.987       .  S
O303        C309   1.268       .  A
O303       Co318   1.993       .  S
O304        C307   1.275       .  A
O304       Co321   2.008       .  S
O305        C306   1.275       .  A
O305       Co320   2.006       .  S
C306       C2899   1.456       .  S
C307       C1699   1.446       .  S
C308       C1744   1.485       .  S
C309       C1827   1.490       .  S
O310        C323   1.273       .  A
O310       Co318   1.996       .  S
O311        C324   1.275       .  A
O311       Co319   2.011       .  S
O312        C325   1.264   1_556  A
O312       Co320   1.988       .  S
O313        C326   1.266   1_554  A
O313       Co321   1.992       .  S
O314        C326   1.269       .  A
O314       Co319   2.030       .  S
O315        C325   1.267       .  A
O315       Co318   2.023       .  S
O316        C323   1.266       .  A
O316       Co321   1.967       .  S
O317        C324   1.262       .  A
O317       Co320   1.949       .  S
Co318       O322   2.103   1_554  S
Co319       O322   2.101       .  S
Co320       O322   2.103       .  S
Co321       O322   2.105   1_554  S
C323       C1680   1.451       .  S
C324       C1664   1.446       .  S
C325       C1715   1.485       .  S
C326       C1731   1.488       .  S
C327        C328   1.428       .  A
C327        C332   1.426       .  A
C327       C1603   1.499       .  S
C328        C329   1.429       .  A
C328       C1616   1.503       .  S
C329        C330   1.422       .  A
C329       C2963   1.496       .  S
C330        C331   1.419       .  A
C330       C1747   1.494       .  S
C331        C332   1.421       .  A
C331       C1635   1.495       .  S
C332       C1648   1.500       .  S
O333        C341   1.268       .  A
O333       Co353   1.992       .  S
O334        C342   1.267       .  A
O334       Co354   1.981       .  S
O335        C343   1.269       .  A
O335       Co355   1.984       .  S
O336        C344   1.269       .  A
O336       Co356   1.985       .  S
O337        C343   1.272       .  A
O337       Co354   2.036       .  S
O338        C344   1.273       .  A
O338       Co353   2.036       .  S
O339        C342   1.265       .  A
O339       Co356   1.973       .  S
O340        C341   1.267       .  A
O340       Co355   1.981       .  S
C341       C1504   1.459       .  S
C342       C1539   1.450       .  S
C343       C1587   1.485       .  S
C344       C1568   1.486       .  S
O345        C358   1.264       .  A
O345       Co353   1.971       .  S
O346        C359   1.262       .  A
O346       Co354   1.965       .  S
O347        C360   1.272       .  A
O347       Co355   2.030       .  S
O348        C361   1.273       .  A
O348       Co356   2.036       .  S
O349        C361   1.271       .  A
O349       Co354   1.997       .  S
O350        C360   1.270       .  A
O350       Co353   1.990       .  S
O351        C358   1.268       .  A
O351       Co356   1.988       .  S
O352        C359   1.272       .  A
O352       Co355   2.005       .  S
Co353       O357   2.104       .  S
Co354       O357   2.101       .  S
Co355       O357   2.111       .  S
Co356       O357   2.108       .  S
C358       C1555   1.449       .  S
C359       C1520   1.458       .  S
C360       C2048   1.493       .  S
C361       C1651   1.492       .  S
O362        C370   1.258       .  A
O362       Co382   1.944   1_565  S
O363        C371   1.269   1_565  A
O363       Co383   1.973       .  S
O364        C372   1.269       .  A
O364       Co384   2.031       .  S
O365        C373   1.265       .  A
O365       Co385   2.012       .  S
O366        C372   1.267       .  A
O366       Co383   1.995       .  S
O367        C373   1.262       .  A
O367       Co382   1.983       .  S
O368        C371   1.275       .  A
O368       Co385   2.007       .  S
O369        C370   1.276       .  A
O369       Co384   2.012       .  S
C370       C2512   1.446       .  S
C371       C1456   1.462       .  S
C372       C2355   1.492       .  S
C373       C1811   1.475       .  S
O374        C387   1.272       .  A
O374       Co382   1.995       .  S
O375        C388   1.275       .  A
O375       Co383   2.014       .  S
O376        C389   1.263   1_565  A
O376       Co384   1.983       .  S
O377        C390   1.268   1_545  A
O377       Co385   1.989       .  S
O378        C390   1.266       .  A
O378       Co383   2.019       .  S
O379        C389   1.269       .  A
O379       Co382   2.041       .  S
O380        C387   1.268       .  A
O380       Co385   1.969       .  S
O381        C388   1.264       .  A
O381       Co384   1.955       .  S
Co382       O386   2.106   1_545  S
Co383       O386   2.101       .  S
Co384       O386   2.097       .  S
Co385       O386   2.110   1_545  S
C387       C1440   1.451       .  S
C388       C1424   1.451       .  S
C389       C1475   1.488       .  S
C390       C1491   1.483       .  S
C391        C392   1.422       .  A
C391        C396   1.421       .  A
C391       C1584   1.491       .  S
C392        C393   1.424   1_545  A
C392       C1395   1.494       .  S
C393        C394   1.422       .  A
C393       C1360   1.500       .  S
C394        C395   1.424       .  A
C394       C1408   1.494       .  S
C395        C396   1.419   1_565  A
C395       C1488   1.488       .  S
C396       C1376   1.501       .  S
O397        C405   1.258       .  A
O397       Co417   1.947       .  S
O398        C406   1.265       .  A
O398       Co418   1.968       .  S
O399        C407   1.269       .  A
O399       Co419   2.034       .  S
O400        C408   1.268       .  A
O400       Co420   2.030       .  S
O401        C407   1.265       .  A
O401       Co418   1.985       .  S
O402        C408   1.260       .  A
O402       Co417   1.977       .  S
O403        C406   1.272       .  A
O403       Co420   1.999       .  S
O404        C405   1.274       .  A
O404       Co419   2.013       .  S
C405       C2275   1.447       .  S
C406       C1312   1.454       .  S
C407       C1328   1.485       .  S
C408       C1411   1.479       .  S
O409        C422   1.274       .  A
O409       Co417   2.013       .  S
O410        C423   1.273       .  A
O410       Co418   2.015       .  S
O411        C424   1.260       .  A
O411       Co419   1.978       .  S
O412        C425   1.268       .  A
O412       Co420   1.991       .  S
O413        C425   1.268       .  A
O413       Co418   2.028       .  S
O414        C424   1.270       .  A
O414       Co417   2.051       .  S
O415        C422   1.264       .  A
O415       Co420   1.963       .  S
O416        C423   1.258       .  A
O416       Co419   1.944       .  S
Co417       O421   2.112       .  S
Co418       O421   2.111       .  S
Co419       O421   2.089       .  S
Co420       O421   2.106       .  S
C422       C1427   1.455       .  S
C423       C1296   1.436       .  S
C424       C2339   1.492       .  S
C425       C1347   1.491       .  S
O426        C434   1.264       .  A
O426       Co446   1.948       .  S
O427        C435   1.259       .  A
O427       Co447   1.933       .  S
O428        C436   1.265       .  A
O428       Co448   2.030       .  S
O429        C437   1.262       .  A
O429       Co449   2.013       .  S
O430        C436   1.257   1_545  A
O430       Co447   1.983       .  S
O431        C437   1.262   1_565  A
O431       Co446   1.993       .  S
O432        C435   1.282       .  A
O432       Co449   2.043       .  S
O433        C434   1.280       .  A
O433       Co448   2.014       .  S
C434       C2099   1.449       .  S
C435       C1523   1.449       .  S
C436       C1283   1.486       .  S
C437       C1392   1.485       .  S
O438        C451   1.279       .  A
O438       Co446   2.016       .  S
O439        C452   1.281       .  A
O439       Co447   2.030       .  S
O440        C453   1.261       .  A
O440       Co448   1.986       .  S
O441        C454   1.258       .  A
O441       Co449   1.985       .  S
O442        C454   1.264       .  A
O442       Co447   2.034       .  S
O443        C453   1.265       .  A
O443       Co446   2.025       .  S
O444        C451   1.266   1_545  A
O444       Co449   1.954       .  S
O445        C452   1.262       .  A
O445       Co448   1.942   1_545  S
Co446       O450   2.104   1_565  S
Co447       O450   2.100       .  S
Co448       O450   2.102   1_565  S
Co449       O450   2.100       .  S
C451       C1248   1.452       .  S
C452       C1232   1.451       .  S
C453       C1267   1.486       .  S
C454       C2016   1.487       .  S
C455        C456   1.423       .  A
C455        C460   1.423   1_565  A
C455       C1280   1.494       .  S
C456        C457   1.423   1_556  A
C456       C2179   1.497       .  S
C457        C458   1.423   1_565  A
C457       C2576   1.498       .  S
C458        C459   1.422       .  A
C458       C1472   1.494       .  S
C459        C460   1.425   1_554  A
C459       C1219   1.498       .  S
C460       C1203   1.499       .  S
O461        C469   1.267       .  A
O461       Co481   1.964       .  S
O462        C470   1.263       .  A
O462       Co482   1.950       .  S
O463        C471   1.269       .  A
O463       Co483   2.039       .  S
O464        C472   1.266       .  A
O464       Co484   2.024       .  S
O465        C471   1.260       .  A
O465       Co482   1.983       .  S
O466        C472   1.264       .  A
O466       Co481   1.985       .  S
O467        C470   1.275       .  A
O467       Co484   2.014       .  S
O468        C469   1.272       .  A
O468       Co483   1.990       .  S
C469       C1696   1.445       .  S
C470       C1155   1.446       .  S
C471       C1168   1.489       .  S
C472       C1216   1.487       .  S
O473        C486   1.278       .  A
O473       Co481   2.018       .  S
O474        C487   1.277       .  A
O474       Co482   2.021       .  S
O475        C488   1.266       .  A
O475       Co483   2.000       .  S
O476        C489   1.258       .  A
O476       Co484   1.969       .  S
O477        C489   1.266       .  A
O477       Co482   2.030       .  S
O478        C488   1.265       .  A
O478       Co481   2.020       .  S
O479        C486   1.260       .  A
O479       Co484   1.942       .  S
O480        C487   1.260       .  A
O480       Co483   1.936       .  S
Co481       O485   2.103       .  S
Co482       O485   2.106       .  S
Co483       O485   2.108       .  S
Co484       O485   2.100       .  S
C486       C1443   1.447       .  S
C487       C1139   1.442       .  S
C488       C1792   1.491       .  S
C489       C1187   1.478       .  S
O490        C498   1.279       .  A
O490       Co510   2.023       .  S
O491        C499   1.278       .  A
O491       Co511   2.016       .  S
O492        C500   1.265       .  A
O492       Co512   1.997       .  S
O493        C501   1.260       .  A
O493       Co513   1.986       .  S
O494        C500   1.266       .  A
O494       Co511   2.025       .  S
O495        C501   1.266       .  A
O495       Co510   2.032       .  S
O496        C499   1.263       .  A
O496       Co513   1.944       .  S
O497        C498   1.262       .  A
O497       Co512   1.940       .  S
C498       C1856   1.445       .  S
C499       C1536   1.445       .  S
C500       C1600   1.491       .  S
C501       C1779   1.487       .  S
O502        C515   1.266       .  A
O502       Co510   1.958       .  S
O503        C516   1.270       .  A
O503       Co511   1.970       .  S
O504        C517   1.266       .  A
O504       Co512   2.031       .  S
O505        C518   1.265       .  A
O505       Co513   2.020       .  S
O506        C518   1.267       .  A
O506       Co511   2.002       .  S
O507        C517   1.262       .  A
O507       Co510   1.986       .  S
O508        C515   1.277       .  A
O508       Co513   2.021       .  S
O509        C516   1.274       .  A
O509       Co512   1.998       .  S
Co510       O514   2.104       .  S
Co511       O514   2.105       .  S
Co512       O514   2.110       .  S
Co513       O514   2.100       .  S
C515       C1459   1.453       .  S
C516       C1123   1.453       .  S
C517       C2720   1.488       .  S
C518       C1379   1.490       .  S
C519        C520   1.420       .  A
C519        C524   1.420       .  A
C519       C2851   1.482       .  S
C520        C521   1.418       .  A
C520       C2448   1.496       .  S
C521        C522   1.424       .  A
C521       C1091   1.500       .  S
C522        C523   1.423       .  A
C522       C1104   1.486       .  S
C523        C524   1.422       .  A
C523       C1344   1.501       .  S
C524       C1072   1.498       .  S
O525        C533   1.271       .  A
O525       Co545   2.011       .  S
O526        C534   1.269       .  A
O526       Co546   1.990       .  S
O527        C535   1.264       .  A
O527       Co547   1.979       .  S
O528        C536   1.263       .  A
O528       Co548   1.979       .  S
O529        C535   1.270       .  A
O529       Co546   2.033       .  S
O530        C536   1.269       .  A
O530       Co545   2.033       .  S
O531        C534   1.264       .  A
O531       Co548   1.967       .  S
O532        C533   1.260       .  A
O532       Co547   1.954       .  S
C533       C1299   1.439       .  S
C534       C1136   1.446       .  S
C535       C1024   1.487       .  S
C536       C1043   1.481       .  S
O537        C550   1.260       .  A
O537       Co545   1.950       .  S
O538        C551   1.265       .  A
O538       Co546   1.962       .  S
O539        C552   1.269       .  A
O539       Co547   2.034       .  S
O540        C553   1.268       .  A
O540       Co548   2.026       .  S
O541        C553   1.268       .  A
O541       Co546   1.991       .  S
O542        C552   1.262       .  A
O542       Co545   1.978       .  S
O543        C550   1.274       .  A
O543       Co548   2.014       .  S
O544        C551   1.272       .  A
O544       Co547   1.995       .  S
Co545       O549   2.110       .  S
Co546       O549   2.110       .  S
Co547       O549   2.096       .  S
Co548       O549   2.096       .  S
C550        C995   1.449       .  S
C551       C1011   1.448       .  S
C552       C1107   1.480       .  S
C553       C1056   1.487       .  S
C554        C555   1.423       .  A
C554        C559   1.418       .  A
C554       C1904   1.492       .  S
C555        C556   1.419       .  A
C555       C2867   1.486       .  S
C556        C557   1.420       .  A
C556        C960   1.503       .  S
C557        C558   1.418       .  A
C557       C1184   1.483       .  S
C558        C559   1.419       .  A
C558       C1059   1.494       .  S
C559        C976   1.492       .  S
C560        C561   1.427       .  A
C560        C565   1.422       .  A
C560       C2691   1.495       .  S
C561        C562   1.423       .  A
C561       C2003   1.496       .  S
C562        C563   1.423       .  A
C562        C947   1.499       .  S
C563        C564   1.423       .  A
C563       C2163   1.496       .  S
C564        C565   1.422       .  A
C564       C1264   1.494       .  S
C565        C931   1.500       .  S
O566        C574   1.262       .  A
O566       Co586   1.940   1_565  S
O567        C575   1.267   1_565  A
O567       Co587   1.956       .  S
O568        C576   1.264       .  A
O568       Co588   2.027       .  S
O569        C577   1.265       .  A
O569       Co589   2.030       .  S
O570        C576   1.261       .  A
O570       Co587   1.988       .  S
O571        C577   1.265       .  A
O571       Co586   1.998       .  S
O572        C575   1.279       .  A
O572       Co589   2.017       .  S
O573        C574   1.279       .  A
O573       Co588   2.023       .  S
C574       C2531   1.445       .  S
C575       C1120   1.453       .  S
C576       C2195   1.485       .  S
C577       C1619   1.490       .  S
O578        C591   1.277       .  A
O578       Co586   2.006       .  S
O579        C592   1.281       .  A
O579       Co587   2.031       .  S
O580        C593   1.261   1_565  A
O580       Co588   1.991       .  S
O581        C594   1.263   1_545  A
O581       Co589   1.993       .  S
O582        C594   1.264       .  A
O582       Co587   2.013       .  S
O583        C593   1.265       .  A
O583       Co586   2.027       .  S
O584        C591   1.266       .  A
O584       Co589   1.958       .  S
O585        C592   1.265       .  A
O585       Co588   1.949       .  S
Co586       O590   2.104   1_545  S
Co587       O590   2.098       .  S
Co588       O590   2.102       .  S
Co589       O590   2.099   1_545  S
C591       C2912   1.448       .  S
C592       C2592   1.454       .  S
C593       C3024   1.486       .  S
C594       C2739   1.485       .  S
O595        C603   1.263       .  A
O595       Co615   1.948       .  S
O596        C604   1.265       .  A
O596       Co616   1.959       .  S
O597        C605   1.267       .  A
O597       Co617   2.030       .  S
O598        C606   1.263       .  A
O598       Co618   2.023       .  S
O599        C605   1.262       .  A
O599       Co616   1.983       .  S
O600        C606   1.262       .  A
O600       Co615   1.985       .  S
O601        C604   1.278       .  A
O601       Co618   2.015       .  S
O602        C603   1.279       .  A
O602       Co617   2.018       .  S
C603       C1939   1.450       .  S
C604        C992   1.451       .  S
C605        C915   1.487       .  S
C606        C896   1.485       .  S
O607        C620   1.278       .  A
O607       Co615   2.018       .  S
O608        C621   1.278       .  A
O608       Co616   2.016       .  S
O609        C622   1.262       .  A
O609       Co617   1.982       .  S
O610        C623   1.262       .  A
O610       Co618   1.987       .  S
O611        C623   1.264       .  A
O611       Co616   2.021       .  S
O612        C622   1.265       .  A
O612       Co615   2.032       .  S
O613        C620   1.264       .  A
O613       Co618   1.952       .  S
O614        C621   1.263       .  A
O614       Co617   1.951       .  S
Co615       O619   2.103       .  S
Co616       O619   2.101       .  S
Co617       O619   2.100       .  S
Co618       O619   2.108       .  S
C620       C1507   1.453       .  S
C621       C1843   1.450       .  S
C622       C2064   1.485       .  S
C623        C979   1.480       .  S
C624        C625   1.418       .  A
C624        C629   1.419       .  A
C624        C912   1.491       .  S
C625        C626   1.415   1_655  A
C625       C1968   1.482       .  S
C626        C627   1.416       .  A
C626       C2675   1.494       .  S
C627        C628   1.424       .  A
C627       C2304   1.490       .  S
C628        C629   1.422   1_455  A
C628        C883   1.488       .  S
C629       C1891   1.500       .  S
O630        C638   1.275       .  A
O630       Co650   1.998       .  S
O631        C639   1.276       .  A
O631       Co651   2.006       .  S
O632        C640   1.264       .  A
O632       Co652   1.992       .  S
O633        C641   1.264       .  A
O633       Co653   1.994       .  S
O634        C640   1.268       .  A
O634       Co651   2.030       .  S
O635        C641   1.267       .  A
O635       Co650   2.026       .  S
O636        C639   1.267       .  A
O636       Co653   1.960   1_556  S
O637        C638   1.270   1_556  A
O637       Co652   1.969       .  S
C638       C2403   1.453       .  S
C639       C2112   1.448       .  S
C640        C944   1.490       .  S
C641       C1088   1.491       .  S
O642        C655   1.263       .  A
O642       Co650   1.945       .  S
O643        C656   1.263       .  A
O643       Co651   1.946       .  S
O644        C657   1.263       .  A
O644       Co652   2.012       .  S
O645        C658   1.265       .  A
O645       Co653   2.025       .  S
O646        C658   1.262   1_556  A
O646       Co651   1.991       .  S
O647        C657   1.264   1_554  A
O647       Co650   1.992       .  S
O648        C655   1.280       .  A
O648       Co653   2.022       .  S
O649        C656   1.279       .  A
O649       Co652   2.022       .  S
Co650       O654   2.100   1_554  S
Co651       O654   2.097       .  S
Co652       O654   2.101       .  S
Co653       O654   2.103   1_554  S
C655       C1008   1.449       .  S
C656       C1955   1.449       .  S
C657        C848   1.478       .  S
C658        C864   1.483       .  S
C659        C660   1.421       .  A
C659        C664   1.421       .  A
C659        C832   1.499       .  S
C660        C661   1.426   1_556  A
C660       C2144   1.492       .  S
C661        C662   1.423       .  A
C661        C867   1.499       .  S
C662        C663   1.420       .  A
C662       C1027   1.497       .  S
C663        C664   1.425   1_554  A
C663       C1171   1.495       .  S
C664       C1728   1.494       .  S
O665        C673   1.260   1_554  A
O665       Co685   1.953       .  S
O666        C674   1.265       .  A
O666       Co686   1.965   1_554  S
O667        C675   1.268       .  A
O667       Co687   2.028       .  S
O668        C676   1.272       .  A
O668       Co688   2.051       .  S
O669        C675   1.268       .  A
O669       Co686   1.989       .  S
O670        C676   1.260       .  A
O670       Co685   1.980       .  S
O671        C674   1.273       .  A
O671       Co688   2.004       .  S
O672        C673   1.274       .  A
O672       Co687   2.013       .  S
C673       C2947   1.451       .  S
C674       C1152   1.458       .  S
C675       C2032   1.490       .  S
C676        C963   1.491       .  S
O677        C690   1.274       .  A
O677       Co685   2.012       .  S
O678        C691   1.272       .  A
O678       Co686   2.000       .  S
O679        C692   1.264   1_556  A
O679       Co687   1.982       .  S
O680        C693   1.263       .  A
O680       Co688   1.990   1_556  S
O681        C693   1.267       .  A
O681       Co686   2.026       .  S
O682        C692   1.270       .  A
O682       Co685   2.041       .  S
O683        C690   1.258       .  A
O683       Co688   1.947       .  S
O684        C691   1.264       .  A
O684       Co687   1.965       .  S
Co685       O689   2.105   1_554  S
Co686       O689   2.112       .  S
Co687       O689   2.104       .  S
Co688       O689   2.115   1_554  S
C690       C2800   1.447       .  S
C691       C1235   1.453       .  S
C692       C3008   1.489       .  S
C693       C1200   1.487       .  S
O694        C702   1.276       .  A
O694       Co714   2.015       .  S
O695        C703   1.271       .  A
O695       Co715   1.987       .  S
O696        C704   1.258       .  A
O696       Co716   1.970       .  S
O697        C705   1.268       .  A
O697       Co717   2.000       .  S
O698        C704   1.270       .  A
O698       Co715   2.044       .  S
O699        C705   1.265       .  A
O699       Co714   2.012       .  S
O700        C703   1.265       .  A
O700       Co717   1.960       .  S
O701        C702   1.261       .  A
O701       Co716   1.946       .  S
C702       C2256   1.446       .  S
C703       C1667   1.443       .  S
C704       C1632   1.484       .  S
C705       C2211   1.487       .  S
O706        C719   1.266       .  A
O706       Co714   1.963       .  S
O707        C720   1.259       .  A
O707       Co715   1.943       .  S
O708        C721   1.265       .  A
O708       Co716   2.021       .  S
O709        C722   1.268       .  A
O709       Co717   2.032       .  S
O710        C722   1.265       .  A
O710       Co715   1.992       .  S
O711        C721   1.263       .  A
O711       Co714   1.977       .  S
O712        C719   1.273       .  A
O712       Co717   1.991       .  S
O713        C720   1.277       .  A
O713       Co716   2.019       .  S
Co714       O718   2.096       .  S
Co715       O718   2.102       .  S
Co716       O718   2.097       .  S
Co717       O718   2.106       .  S
C719       C2131   1.445       .  S
C720       C1552   1.445       .  S
C721        C816   1.476       .  S
C722        C835   1.488       .  S
O723        C731   1.277       .  A
O723       Co743   2.028       .  S
O724        C732   1.275       .  A
O724       Co744   2.013       .  S
O725        C733   1.256       .  A
O725       Co745   1.971       .  S
O726        C734   1.266       .  A
O726       Co746   1.987       .  S
O727        C733   1.268       .  A
O727       Co744   2.041       .  S
O728        C734   1.265       .  A
O728       Co743   2.017       .  S
O729        C732   1.264       .  A
O729       Co746   1.959       .  S
O730        C731   1.257       .  A
O730       Co745   1.936       .  S
C731       C2816   1.441       .  S
C732       C1251   1.453       .  S
C733       C1363   1.482       .  S
C734       C2707   1.481       .  S
O735        C748   1.268       .  A
O735       Co743   1.971       .  S
O736        C749   1.261       .  A
O736       Co744   1.950       .  S
O737        C750   1.268       .  A
O737       Co745   2.034       .  S
O738        C751   1.268       .  A
O738       Co746   2.034       .  S
O739        C751   1.263       .  A
O739       Co744   1.983       .  S
O740        C750   1.264       .  A
O740       Co743   1.989       .  S
O741        C748   1.273       .  A
O741       Co746   1.999       .  S
O742        C749   1.276       .  A
O742       Co745   2.017       .  S
Co743       O747   2.105       .  S
Co744       O747   2.111       .  S
Co745       O747   2.092       .  S
Co746       O747   2.105       .  S
C748       C2640   1.453       .  S
C749       C1315   1.451       .  S
C750       C1075   1.487       .  S
C751        C928   1.489       .  S
O752        C760   1.261       .  A
O752       Co772   1.940       .  S
O753        C761   1.261       .  A
O753       Co773   1.939       .  S
O754        C762   1.267       .  A
O754       Co774   2.036       .  S
O755        C763   1.262       .  A
O755       Co775   2.010       .  S
O756        C762   1.261       .  A
O756       Co773   1.980       .  S
O757        C763   1.266       .  A
O757       Co772   1.996       .  S
O758        C761   1.280       .  A
O758       Co775   2.034       .  S
O759        C760   1.277       .  A
O759       Co774   2.012       .  S
C760       C2416   1.442       .  S
C761       C1872   1.448       .  S
C762        C800   1.483       .  S
C763        C880   1.483       .  S
O764        C777   1.272       .  A
O764       Co772   1.990       .  S
O765        C778   1.276       .  A
O765       Co773   2.008       .  S
O766        C779   1.264       .  A
O766       Co774   1.985       .  S
O767        C780   1.262       .  A
O767       Co775   1.988       .  S
O768        C780   1.266       .  A
O768       Co773   2.028       .  S
O769        C779   1.269       .  A
O769       Co772   2.041       .  S
O770        C777   1.270       .  A
O770       Co775   1.970       .  S
O771        C778   1.264       .  A
O771       Co774   1.956       .  S
Co772       O776   2.108       .  S
Co773       O776   2.098       .  S
Co774       O776   2.103       .  S
Co775       O776   2.098       .  S
C777       C2240   1.447       .  S
C778       C1683   1.451       .  S
C779       C2371   1.494       .  S
C780       C1763   1.484       .  S
C781        C782   1.424       .  A
C781        C786   1.423       .  A
C781       C1040   1.493       .  S
C782        C783   1.420       .  A
C782       C1331   1.491       .  S
C783        C784   1.420       .  A
C783       C2291   1.499       .  S
C784        C785   1.417       .  A
C784        C819   1.485       .  S
C785        C786   1.418       .  A
C785       C1571   1.492       .  S
C786        C899   1.491       .  S
C787        C788   1.419   1_655  A
C787        C792   1.424       .  A
C787       C1987   1.502       .  S
C788        C789   1.421   1_556  A
C788       C2979   1.492       .  S
C789        C790   1.422       .  A
C789       C1712   1.493       .  S
C790        C791   1.421   1_455  A
C790        C803   1.495       .  S
C791        C792   1.423   1_554  A
C791       C2435   1.496       .  S
C792        C851   1.488       .  S
C793        C798   1.380       .  A
C793        C794   1.404       .  A
C793        O799   1.322       .  A
C794        C795   1.405       .  A
C794        H805   1.082       .  S
C795        C804   1.361       .  A
C795        C796   1.379       .  A
C796        C797   1.411       .  A
C796        O802   1.327       .  A
C797        C798   1.411       .  A
C797        H806   1.082       .  S
C798        C801   1.369       .  A
O799        C800   1.331       .  A
C800        C801   1.397       .  A
C801        H807   1.082       .  S
O802        C803   1.335       .  A
C803        C804   1.392       .  A
C804        H808   1.082   1_455  S
C809        C814   1.380       .  A
C809        C810   1.407       .  A
C809        O815   1.320       .  A
C810        C811   1.405       .  A
C810        H821   1.082       .  S
C811        C820   1.367       .  A
C811        C812   1.380       .  A
C812        C813   1.406       .  A
C812        O818   1.319       .  A
C813        C814   1.404       .  A
C813        H822   1.082       .  S
C814        C817   1.366       .  A
O815        C816   1.333       .  A
C816        C817   1.391       .  A
C817        H823   1.083       .  S
O818        C819   1.332       .  A
C819        C820   1.391       .  A
C820        H824   1.082       .  S
C825        C830   1.379       .  A
C825        C826   1.411       .  A
C825        O831   1.324       .  A
C826        C827   1.410       .  A
C826        H837   1.082       .  S
C827        C836   1.373       .  A
C827        C828   1.379       .  A
C828        C829   1.409       .  A
C828        O834   1.323       .  A
C829        C830   1.407       .  A
C829        H838   1.082       .  S
C830        C833   1.370       .  A
O831        C832   1.335       .  A
C832        C833   1.393       .  A
C833        H839   1.082       .  S
O834        C835   1.335       .  A
C835        C836   1.396       .  A
C836        H840   1.082       .  S
C841        C846   1.379       .  A
C841        C842   1.405       .  A
C841        O847   1.316       .  A
C842        C843   1.402       .  A
C842        H853   1.082       .  S
C843        C852   1.367       .  A
C843        C844   1.379       .  A
C844        C845   1.409       .  A
C844        O850   1.319       .  A
C845        C846   1.407       .  A
C845        H854   1.082   1_556  S
C846        C849   1.373       .  A
O847        C848   1.332       .  A
C848        C849   1.394       .  A
C849        H855   1.082       .  S
O850        C851   1.333       .  A
C851        C852   1.392       .  A
C852        H856   1.082       .  S
C857        C862   1.380       .  A
C857        C858   1.408       .  A
C857        O863   1.327       .  A
C858        C859   1.409       .  A
C858        H869   1.083       .  S
C859        C868   1.364       .  A
C859        C860   1.379       .  A
C860        C861   1.406       .  A
C860        O866   1.324       .  A
C861        C862   1.407       .  A
C861        H870   1.082       .  S
C862        C865   1.363       .  A
O863        C864   1.334       .  A
C864        C865   1.393       .  A
C865        H871   1.082       .  S
O866        C867   1.334       .  A
C867        C868   1.395       .  A
C868        H872   1.083       .  S
C873        C878   1.379       .  A
C873        C874   1.407       .  A
C873        O879   1.318       .  A
C874        C875   1.404       .  A
C874        H885   1.082       .  S
C875        C884   1.369       .  A
C875        C876   1.379       .  A
C876        C877   1.410       .  A
C876        O882   1.320       .  A
C877        C878   1.407       .  A
C877        H886   1.082       .  S
C878        C881   1.374       .  A
O879        C880   1.333       .  A
C880        C881   1.394       .  A
C881        H887   1.082       .  S
O882        C883   1.334       .  A
C883        C884   1.392       .  A
C884        H888   1.082       .  S
C889        C894   1.379       .  A
C889        C890   1.412       .  A
C889        O895   1.324       .  A
C890        C891   1.410       .  A
C890        H901   1.082       .  S
C891        C900   1.372       .  A
C891        C892   1.379       .  A
C892        C893   1.406       .  A
C892        O898   1.320       .  A
C893        C894   1.405       .  A
C893        H902   1.082       .  S
C894        C897   1.368       .  A
O895        C896   1.336       .  A
C896        C897   1.393       .  A
C897        H903   1.083       .  S
O898        C899   1.332       .  A
C899        C900   1.395       .  A
C900        H904   1.082       .  S
C905        C910   1.380       .  A
C905        C906   1.408       .  A
C905        O911   1.326       .  A
C906        C907   1.409       .  A
C906        H917   1.082       .  S
C907        C916   1.366       .  A
C907        C908   1.380       .  A
C908        C909   1.407       .  A
C908        O914   1.325       .  A
C909        C910   1.407       .  A
C909        H918   1.082       .  S
C910        C913   1.363       .  A
O911        C912   1.333       .  A
C912        C913   1.392       .  A
C913        H919   1.083       .  S
O914        C915   1.334       .  A
C915        C916   1.396       .  A
C916        H920   1.083       .  S
C921        C926   1.379       .  A
C921        C922   1.409       .  A
C921        O927   1.323       .  A
C922        C923   1.407       .  A
C922        H933   1.082       .  S
C923        C932   1.370       .  A
C923        C924   1.378       .  A
C924        C925   1.413       .  A
C924        O930   1.326       .  A
C925        C926   1.412       .  A
C925        H934   1.082       .  S
C926        C929   1.373       .  A
O927        C928   1.334       .  A
C928        C929   1.397       .  A
C929        H935   1.082       .  S
O930        C931   1.337       .  A
C931        C932   1.393       .  A
C932        H936   1.082       .  S
C937        C942   1.379       .  A
C937        C938   1.411       .  A
C937        O943   1.329       .  A
C938        C939   1.412       .  A
C938        H949   1.083       .  S
C939        C948   1.368       .  A
C939        C940   1.380       .  A
C940        C941   1.407       .  A
C940        O946   1.326       .  A
C941        C942   1.408       .  A
C941        H950   1.082       .  S
C942        C945   1.364       .  A
O943        C944   1.336       .  A
C944        C945   1.395       .  A
C945        H951   1.082       .  S
O946        C947   1.333       .  A
C947        C948   1.396       .  A
C948        H952   1.083       .  S
C953        C958   1.379       .  A
C953        C954   1.412       .  A
C953        O959   1.328       .  A
C954        C955   1.413       .  A
C954        H965   1.082       .  S
C955        C964   1.371       .  A
C955        C956   1.379       .  A
C956        C957   1.408       .  A
C956        O962   1.326       .  A
C957        C958   1.408       .  A
C957        H966   1.082       .  S
C958        C961   1.365       .  A
O959        C960   1.336       .  A
C960        C961   1.394       .  A
C961        H967   1.082       .  S
O962        C963   1.335       .  A
C963        C964   1.397       .  A
C964        H968   1.082       .  S
C969        C974   1.378       .  A
C969        C970   1.412       .  A
C969        O975   1.322       .  A
C970        C971   1.409       .  A
C970        H981   1.082       .  S
C971        C980   1.374       .  A
C971        C972   1.379       .  A
C972        C973   1.404       .  A
C972        O978   1.317       .  A
C973        C974   1.402       .  A
C973        H982   1.082       .  S
C974        C977   1.366       .  A
O975        C976   1.336       .  A
C976        C977   1.391       .  A
C977        H983   1.081       .  S
O978        C979   1.331       .  A
C979        C980   1.396       .  A
C980        H984   1.082       .  S
C985        C990   1.381       .  A
C985        C986   1.385       .  A
C985        O991   1.301       .  A
C986        C987   1.384       .  A
C986        H997   1.083       .  S
C987        C996   1.342       .  A
C987        C988   1.381       .  A
C988        C989   1.410       .  A
C988        O994   1.321       .  A
C989        C990   1.408       .  A
C989        H998   1.082       .  S
C990        C993   1.370       .  A
O991        C992   1.321       .  A
C992        C993   1.394       .  A
C993        H999   1.082       .  S
O994        C995   1.333       .  A
C995        C996   1.379       .  A
C996       H1000   1.081       .  S
C1001      C1006   1.382       .  A
C1001      C1002   1.408       .  A
C1001      O1007   1.318       .  A
C1002      C1003   1.405       .  A
C1002      H1013   1.082       .  S
C1003      C1012   1.369       .  A
C1003      C1004   1.381       .  A
C1004      C1005   1.387       .  A
C1004      O1010   1.300       .  A
C1005      C1006   1.385       .  A
C1005      H1014   1.083       .  S
C1006      C1009   1.345       .  A
O1007      C1008   1.332       .  A
C1008      C1009   1.380       .  A
C1009      H1015   1.083       .  S
O1010      C1011   1.321       .  A
C1011      C1012   1.393       .  A
C1012      H1016   1.082       .  S
C1017      C1022   1.379       .  A
C1017      C1018   1.410       .  A
C1017      O1023   1.328       .  A
C1018      C1019   1.411       .  A
C1018      H1029   1.082       .  S
C1019      C1028   1.368       .  A
C1019      C1020   1.380       .  A
C1020      C1021   1.408       .  A
C1020      O1026   1.326       .  A
C1021      C1022   1.408       .  A
C1021      H1030   1.082       .  S
C1022      C1025   1.365       .  A
O1023      C1024   1.336       .  A
C1024      C1025   1.394       .  A
C1025      H1031   1.083       .  S
O1026      C1027   1.333       .  A
C1027      C1028   1.395       .  A
C1028      H1032   1.082       .  S
C1033      C1038   1.379       .  A
C1033      C1034   1.407       .  A
C1033      O1039   1.321       .  A
C1034      C1035   1.406       .  A
C1034      H1045   1.082       .  S
C1035      C1044   1.368       .  A
C1035      C1036   1.379       .  A
C1036      C1037   1.409       .  A
C1036      O1042   1.322       .  A
C1037      C1038   1.408       .  A
C1037      H1046   1.082       .  S
C1038      C1041   1.370       .  A
O1039      C1040   1.333       .  A
C1040      C1041   1.394       .  A
C1041      H1047   1.082       .  S
O1042      C1043   1.334       .  A
C1043      C1044   1.393       .  A
C1044      H1048   1.082       .  S
C1049      C1054   1.379       .  A
C1049      C1050   1.409       .  A
C1049      O1055   1.320       .  A
C1050      C1051   1.406       .  A
C1050      H1061   1.082       .  S
C1051      C1060   1.371       .  A
C1051      C1052   1.379       .  A
C1052      C1053   1.411       .  A
C1052      O1058   1.322       .  A
C1053      C1054   1.409       .  A
C1053      H1062   1.082       .  S
C1054      C1057   1.374       .  A
O1055      C1056   1.335       .  A
C1056      C1057   1.395       .  A
C1057      H1063   1.082       .  S
O1058      C1059   1.335       .  A
C1059      C1060   1.393       .  A
C1060      H1064   1.082       .  S
C1065      C1070   1.379       .  A
C1065      C1066   1.410       .  A
C1065      O1071   1.328       .  A
C1066      C1067   1.412       .  A
C1066      H1077   1.082       .  S
C1067      C1076   1.368       .  A
C1067      C1068   1.380       .  A
C1068      C1069   1.407       .  A
C1068      O1074   1.326       .  A
C1069      C1070   1.407       .  A
C1069      H1078   1.082       .  S
C1070      C1073   1.364       .  A
O1071      C1072   1.336       .  A
C1072      C1073   1.393       .  A
C1073      H1079   1.083       .  S
O1074      C1075   1.333       .  A
C1075      C1076   1.397       .  A
C1076      H1080   1.083       .  S
C1081      C1086   1.379       .  A
C1081      C1082   1.410       .  A
C1081      O1087   1.330       .  A
C1082      C1083   1.411       .  A
C1082      H1093   1.083       .  S
C1083      C1092   1.366       .  A
C1083      C1084   1.379       .  A
C1084      C1085   1.408       .  A
C1084      O1090   1.327       .  A
C1085      C1086   1.410       .  A
C1085      H1094   1.082       .  S
C1086      C1089   1.364       .  A
O1087      C1088   1.336       .  A
C1088      C1089   1.396       .  A
C1089      H1095   1.083       .  S
O1090      C1091   1.334       .  A
C1091      C1092   1.395       .  A
C1092      H1096   1.083       .  S
C1097      C1102   1.380       .  A
C1097      C1098   1.408       .  A
C1097      O1103   1.325       .  A
C1098      C1099   1.409       .  A
C1098      H1109   1.082       .  S
C1099      C1108   1.367       .  A
C1099      C1100   1.380       .  A
C1100      C1101   1.403       .  A
C1100      O1106   1.322       .  A
C1101      C1102   1.403       .  A
C1101      H1110   1.082       .  S
C1102      C1105   1.360       .  A
O1103      C1104   1.333       .  A
C1104      C1105   1.391       .  A
C1105      H1111   1.082       .  S
O1106      C1107   1.331       .  A
C1107      C1108   1.396       .  A
C1108      H1112   1.083       .  S
C1113      C1118   1.382       .  A
C1113      C1114   1.407       .  A
C1113      O1119   1.319       .  A
C1114      C1115   1.404       .  A
C1114      H1125   1.082       .  S
C1115      C1124   1.369       .  A
C1115      C1116   1.380       .  A
C1116      C1117   1.390       .  A
C1116      O1122   1.303       .  A
C1117      C1118   1.388       .  A
C1117      H1126   1.083       .  S
C1118      C1121   1.346       .  A
O1119      C1120   1.331       .  A
C1120      C1121   1.384       .  A
C1121      H1127   1.083       .  S
O1122      C1123   1.325       .  A
C1123      C1124   1.392       .  A
C1124      H1128   1.082       .  S
C1129      C1134   1.382       .  A
C1129      C1130   1.388       .  A
C1129      O1135   1.300       .  A
C1130      C1131   1.385       .  A
C1130      H1141   1.083       .  S
C1131      C1140   1.346       .  A
C1131      C1132   1.382       .  A
C1132      C1133   1.405       .  A
C1132      O1138   1.315       .  A
C1133      C1134   1.402       .  A
C1133      H1142   1.082       .  S
C1134      C1137   1.368       .  A
O1135      C1136   1.323       .  A
C1136      C1137   1.390       .  A
C1137      H1143   1.082       .  S
O1138      C1139   1.329       .  A
C1139      C1140   1.379       .  A
C1140      H1144   1.080       .  S
C1145      C1150   1.381       .  A
C1145      C1146   1.406       .  A
C1145      O1151   1.322       .  A
C1146      C1147   1.407       .  A
C1146      H1157   1.080       .  S
C1147      C1156   1.365       .  A
C1147      C1148   1.383       .  A
C1148      C1149   1.389       .  A
C1148      O1154   1.306       .  A
C1149      C1150   1.389       .  A
C1149      H1158   1.082       .  S
C1150      C1153   1.344       .  A
O1151      C1152   1.332       .  A
C1152      C1153   1.386       .  A
C1153      H1159   1.083       .  S
O1154      C1155   1.321       .  A
C1155      C1156   1.392       .  A
C1156      H1160   1.082       .  S
C1161      C1166   1.379       .  A
C1161      C1162   1.408       .  A
C1161      O1167   1.326       .  A
C1162      C1163   1.408       .  A
C1162      H1173   1.082       .  S
C1163      C1172   1.364       .  A
C1163      C1164   1.379       .  A
C1164      C1165   1.408       .  A
C1164      O1170   1.326       .  A
C1165      C1166   1.410       .  A
C1165      H1174   1.082       .  S
C1166      C1169   1.367       .  A
O1167      C1168   1.335       .  A
C1168      C1169   1.395       .  A
C1169      H1175   1.082       .  S
O1170      C1171   1.334       .  A
C1171      C1172   1.394       .  A
C1172      H1176   1.082   1_554  S
C1177      C1182   1.380       .  A
C1177      C1178   1.407       .  A
C1177      O1183   1.319       .  A
C1178      C1179   1.405       .  A
C1178      H1189   1.082       .  S
C1179      C1188   1.366       .  A
C1179      C1180   1.380       .  A
C1180      C1181   1.406       .  A
C1180      O1186   1.321       .  A
C1181      C1182   1.404       .  A
C1181      H1190   1.082       .  S
C1182      C1185   1.366       .  A
O1183      C1184   1.332       .  A
C1184      C1185   1.390       .  A
C1185      H1191   1.082       .  S
O1186      C1187   1.332       .  A
C1187      C1188   1.393       .  A
C1188      H1192   1.083       .  S
C1193      C1198   1.379       .  A
C1193      C1194   1.407       .  A
C1193      O1199   1.320       .  A
C1194      C1195   1.405       .  A
C1194      H1205   1.082       .  S
C1195      C1204   1.369       .  A
C1195      C1196   1.378       .  A
C1196      C1197   1.414       .  A
C1196      O1202   1.325       .  A
C1197      C1198   1.412       .  A
C1197      H1206   1.082       .  S
C1198      C1201   1.376       .  A
O1199      C1200   1.333       .  A
C1200      C1201   1.398       .  A
C1201      H1207   1.082       .  S
O1202      C1203   1.337       .  A
C1203      C1204   1.393       .  A
C1204      H1208   1.082       .  S
C1209      C1214   1.380       .  A
C1209      C1210   1.409       .  A
C1209      O1215   1.327       .  A
C1210      C1211   1.409       .  A
C1210      H1221   1.083       .  S
C1211      C1220   1.364       .  A
C1211      C1212   1.380       .  A
C1212      C1213   1.409       .  A
C1212      O1218   1.329       .  A
C1213      C1214   1.411       .  A
C1213      H1222   1.082       .  S
C1214      C1217   1.367       .  A
O1215      C1216   1.335       .  A
C1216      C1217   1.395       .  A
C1217      H1223   1.082       .  S
O1218      C1219   1.334       .  A
C1219      C1220   1.395       .  A
C1220      H1224   1.083       .  S
C1225      C1230   1.383       .  A
C1225      C1226   1.407       .  A
C1225      O1231   1.318       .  A
C1226      C1227   1.404       .  A
C1226      H1237   1.082       .  S
C1227      C1236   1.370       .  A
C1227      C1228   1.382       .  A
C1228      C1229   1.390       .  A
C1228      O1234   1.303       .  A
C1229      C1230   1.388       .  A
C1229      H1238   1.083       .  S
C1230      C1233   1.348       .  A
O1231      C1232   1.330       .  A
C1232      C1233   1.381       .  A
C1233      H1239   1.081       .  S
O1234      C1235   1.323       .  A
C1235      C1236   1.392       .  A
C1236      H1240   1.082       .  S
C1241      C1246   1.381       .  A
C1241      C1242   1.408       .  A
C1241      O1247   1.320       .  A
C1242      C1243   1.406       .  A
C1242      H1253   1.082       .  S
C1243      C1252   1.367       .  A
C1243      C1244   1.381       .  A
C1244      C1245   1.389       .  A
C1244      O1250   1.305       .  A
C1245      C1246   1.388       .  A
C1245      H1254   1.083       .  S
C1246      C1249   1.345       .  A
O1247      C1248   1.332       .  A
C1248      C1249   1.382       .  A
C1249      H1255   1.082       .  S
O1250      C1251   1.323       .  A
C1251      C1252   1.394       .  A
C1252      H1256   1.082       .  S
C1257      C1262   1.380       .  A
C1257      C1258   1.407       .  A
C1257      O1263   1.326       .  A
C1258      C1259   1.408       .  A
C1258      H1269   1.082       .  S
C1259      C1268   1.363       .  A
C1259      C1260   1.380       .  A
C1260      C1261   1.408       .  A
C1260      O1266   1.327       .  A
C1261      C1262   1.409       .  A
C1261      H1270   1.082       .  S
C1262      C1265   1.364       .  A
O1263      C1264   1.333       .  A
C1264      C1265   1.393       .  A
C1265      H1271   1.082       .  S
O1266      C1267   1.334       .  A
C1267      C1268   1.394       .  A
C1268      H1272   1.082       .  S
C1273      C1278   1.380       .  A
C1273      C1274   1.407       .  A
C1273      O1279   1.326       .  A
C1274      C1275   1.408       .  A
C1274      H1285   1.082       .  S
C1275      C1284   1.365       .  A
C1275      C1276   1.379       .  A
C1276      C1277   1.409       .  A
C1276      O1282   1.326       .  A
C1277      C1278   1.410       .  A
C1277      H1286   1.082   1_565  S
C1278      C1281   1.365       .  A
O1279      C1280   1.333       .  A
C1280      C1281   1.395       .  A
C1281      H1287   1.082   1_565  S
O1282      C1283   1.335       .  A
C1283      C1284   1.393       .  A
C1284      H1288   1.083       .  S
C1289      C1294   1.383       .  A
C1289      C1290   1.399       .  A
C1289      O1295   1.309       .  A
C1290      C1291   1.395       .  A
C1290      H1301   1.083       .  S
C1291      C1300   1.360       .  A
C1291      C1292   1.383       .  A
C1292      C1293   1.395       .  A
C1292      O1298   1.307       .  A
C1293      C1294   1.392       .  A
C1293      H1302   1.083       .  S
C1294      C1297   1.356       .  A
O1295      C1296   1.325       .  A
C1296      C1297   1.382       .  A
C1297      H1303   1.082       .  S
O1298      C1299   1.324       .  A
C1299      C1300   1.384       .  A
C1300      H1304   1.083       .  S
C1305      C1310   1.381       .  A
C1305      C1306   1.389       .  A
C1305      O1311   1.303       .  A
C1306      C1307   1.387       .  A
C1306      H1317   1.083       .  S
C1307      C1316   1.346       .  A
C1307      C1308   1.382       .  A
C1308      C1309   1.408       .  A
C1308      O1314   1.319       .  A
C1309      C1310   1.406       .  A
C1309      H1318   1.082       .  S
C1310      C1313   1.370       .  A
O1311      C1312   1.323       .  A
C1312      C1313   1.393       .  A
C1313      H1319   1.082       .  S
O1314      C1315   1.331       .  A
C1315      C1316   1.382       .  A
C1316      H1320   1.082       .  S
C1321      C1326   1.379       .  A
C1321      C1322   1.409       .  A
C1321      O1327   1.321       .  A
C1322      C1323   1.407       .  A
C1322      H1333   1.082       .  S
C1323      C1332   1.369       .  A
C1323      C1324   1.379       .  A
C1324      C1325   1.409       .  A
C1324      O1330   1.322       .  A
C1325      C1326   1.407       .  A
C1325      H1334   1.082       .  S
C1326      C1329   1.371       .  A
O1327      C1328   1.334       .  A
C1328      C1329   1.394       .  A
C1329      H1335   1.082       .  S
O1330      C1331   1.333       .  A
C1331      C1332   1.393       .  A
C1332      H1336   1.082       .  S
C1337      C1342   1.379       .  A
C1337      C1338   1.412       .  A
C1337      O1343   1.330       .  A
C1338      C1339   1.413       .  A
C1338      H1349   1.082       .  S
C1339      C1348   1.370       .  A
C1339      C1340   1.380       .  A
C1340      C1341   1.408       .  A
C1340      O1346   1.327       .  A
C1341      C1342   1.408       .  A
C1341      H1350   1.082       .  S
C1342      C1345   1.364       .  A
O1343      C1344   1.336       .  A
C1344      C1345   1.393       .  A
C1345      H1351   1.082       .  S
O1346      C1347   1.334       .  A
C1347      C1348   1.398       .  A
C1348      H1352   1.083       .  S
C1353      C1358   1.379       .  A
C1353      C1354   1.409       .  A
C1353      O1359   1.325       .  A
C1354      C1355   1.409       .  A
C1354      H1365   1.082       .  S
C1355      C1364   1.369       .  A
C1355      C1356   1.380       .  A
C1356      C1357   1.407       .  A
C1356      O1362   1.323       .  A
C1357      C1358   1.407       .  A
C1357      H1366   1.083       .  S
C1358      C1361   1.365       .  A
O1359      C1360   1.335       .  A
C1360      C1361   1.395       .  A
C1361      H1367   1.083   1_565  S
O1362      C1363   1.333       .  A
C1363      C1364   1.395       .  A
C1364      H1368   1.082       .  S
C1369      C1374   1.378       .  A
C1369      C1370   1.414       .  A
C1369      O1375   1.325       .  A
C1370      C1371   1.412       .  A
C1370      H1381   1.082       .  S
C1371      C1380   1.378       .  A
C1371      C1372   1.378       .  A
C1372      C1373   1.409       .  A
C1372      O1378   1.320       .  A
C1373      C1374   1.406       .  A
C1373      H1382   1.082       .  S
C1374      C1377   1.370       .  A
O1375      C1376   1.337       .  A
C1376      C1377   1.394       .  A
C1377      H1383   1.082       .  S
O1378      C1379   1.334       .  A
C1379      C1380   1.397       .  A
C1380      H1384   1.082       .  S
C1385      C1390   1.380       .  A
C1385      C1386   1.410       .  A
C1385      O1391   1.329       .  A
C1386      C1387   1.411       .  A
C1386      H1397   1.082   1_545  S
C1387      C1396   1.366       .  A
C1387      C1388   1.380       .  A
C1388      C1389   1.404       .  A
C1388      O1394   1.324       .  A
C1389      C1390   1.406       .  A
C1389      H1398   1.083       .  S
C1390      C1393   1.360       .  A
O1391      C1392   1.335       .  A
C1392      C1393   1.393       .  A
C1393      H1399   1.083       .  S
O1394      C1395   1.332       .  A
C1395      C1396   1.395       .  A
C1396      H1400   1.082   1_545  S
C1401      C1406   1.379       .  A
C1401      C1402   1.410       .  A
C1401      O1407   1.322       .  A
C1402      C1403   1.409       .  A
C1402      H1413   1.082       .  S
C1403      C1412   1.371       .  A
C1403      C1404   1.380       .  A
C1404      C1405   1.405       .  A
C1404      O1410   1.319       .  A
C1405      C1406   1.403       .  A
C1405      H1414   1.082       .  S
C1406      C1409   1.366       .  A
O1407      C1408   1.335       .  A
C1408      C1409   1.392       .  A
C1409      H1415   1.082       .  S
O1410      C1411   1.332       .  A
C1411      C1412   1.396       .  A
C1412      H1416   1.082       .  S
C1417      C1422   1.381       .  A
C1417      C1418   1.408       .  A
C1417      O1423   1.320       .  A
C1418      C1419   1.406       .  A
C1418      H1429   1.082       .  S
C1419      C1428   1.368       .  A
C1419      C1420   1.381       .  A
C1420      C1421   1.389       .  A
C1420      O1426   1.305       .  A
C1421      C1422   1.388       .  A
C1421      H1430   1.083       .  S
C1422      C1425   1.344       .  A
O1423      C1424   1.332       .  A
C1424      C1425   1.382       .  A
C1425      H1431   1.079       .  S
O1426      C1427   1.323       .  A
C1427      C1428   1.393       .  A
C1428      H1432   1.082       .  S
C1433      C1438   1.381       .  A
C1433      C1434   1.388       .  A
C1433      O1439   1.301       .  A
C1434      C1435   1.385       .  A
C1434      H1445   1.083       .  S
C1435      C1444   1.345       .  A
C1435      C1436   1.382       .  A
C1436      C1437   1.408       .  A
C1436      O1442   1.317       .  A
C1437      C1438   1.404       .  A
C1437      H1446   1.082       .  S
C1438      C1441   1.370       .  A
O1439      C1440   1.323       .  A
C1440      C1441   1.393       .  A
C1441      H1447   1.082       .  S
O1442      C1443   1.331       .  A
C1443      C1444   1.380       .  A
C1444      H1448   1.082       .  S
C1449      C1454   1.381       .  A
C1449      C1450   1.405       .  A
C1449      O1455   1.325       .  A
C1450      C1451   1.407       .  A
C1450      H1461   1.082       .  S
C1451      C1460   1.364       .  A
C1451      C1452   1.383       .  A
C1452      C1453   1.393       .  A
C1452      O1458   1.311       .  A
C1453      C1454   1.393       .  A
C1453      H1462   1.083       .  S
C1454      C1457   1.346       .  A
O1455      C1456   1.331       .  A
C1456      C1457   1.387       .  A
C1457      H1463   1.083       .  S
O1458      C1459   1.325       .  A
C1459      C1460   1.391       .  A
C1460      H1464   1.082       .  S
C1465      C1470   1.379       .  A
C1465      C1466   1.407       .  A
C1465      O1471   1.321       .  A
C1466      C1467   1.406       .  A
C1466      H1477   1.082   1_545  S
C1467      C1476   1.368       .  A
C1467      C1468   1.379       .  A
C1468      C1469   1.411       .  A
C1468      O1474   1.325       .  A
C1469      C1470   1.409       .  A
C1469      H1478   1.082       .  S
C1470      C1473   1.371       .  A
O1471      C1472   1.333       .  A
C1472      C1473   1.394       .  A
C1473      H1479   1.082       .  S
O1474      C1475   1.336       .  A
C1475      C1476   1.394       .  A
C1476      H1480   1.082       .  S
C1481      C1486   1.379       .  A
C1481      C1482   1.409   1_565  A
C1481      O1487   1.320       .  A
C1482      C1483   1.407   1_545  A
C1482      H1493   1.082       .  S
C1483      C1492   1.372   1_565  A
C1483      C1484   1.379       .  A
C1484      C1485   1.408       .  A
C1484      O1490   1.319       .  A
C1485      C1486   1.405       .  A
C1485      H1494   1.082       .  S
C1486      C1489   1.370       .  A
O1487      C1488   1.333       .  A
C1488      C1489   1.392       .  A
C1489      H1495   1.082       .  S
O1490      C1491   1.334       .  A
C1491      C1492   1.394   1_565  A
C1492      H1496   1.082       .  S
C1497      C1502   1.380       .  A
C1497      C1498   1.390       .  A
C1497      O1503   1.304       .  A
C1498      C1499   1.388       .  A
C1498      H1509   1.083       .  S
C1499      C1508   1.347       .  A
C1499      C1500   1.381       .  A
C1500      C1501   1.410       .  A
C1500      O1506   1.320       .  A
C1501      C1502   1.408       .  A
C1501      H1510   1.082       .  S
C1502      C1505   1.372       .  A
O1503      C1504   1.325       .  A
C1504      C1505   1.395       .  A
C1505      H1511   1.082       .  S
O1506      C1507   1.332       .  A
C1507      C1508   1.383       .  A
C1508      H1512   1.083       .  S
C1513      C1518   1.383       .  A
C1513      C1514   1.403       .  A
C1513      O1519   1.323       .  A
C1514      C1515   1.404       .  A
C1514      H1525   1.082       .  S
C1515      C1524   1.359       .  A
C1515      C1516   1.385       .  A
C1516      C1517   1.392       .  A
C1516      O1522   1.313       .  A
C1517      C1518   1.393       .  A
C1517      H1526   1.083       .  S
C1518      C1521   1.346       .  A
O1519      C1520   1.330       .  A
C1520      C1521   1.385       .  A
C1521      H1527   1.083       .  S
O1522      C1523   1.323       .  A
C1523      C1524   1.388       .  A
C1524      H1528   1.083       .  S
C1529      C1534   1.381       .  A
C1529      C1530   1.409       .  A
C1529      O1535   1.318       .  A
C1530      C1531   1.406       .  A
C1530      H1541   1.082       .  S
C1531      C1540   1.372       .  A
C1531      C1532   1.381       .  A
C1532      C1533   1.386       .  A
C1532      O1538   1.298       .  A
C1533      C1534   1.383       .  A
C1533      H1542   1.083       .  S
C1534      C1537   1.343       .  A
O1535      C1536   1.331       .  A
C1536      C1537   1.379       .  A
C1537      H1543   1.082       .  S
O1538      C1539   1.322       .  A
C1539      C1540   1.393       .  A
C1540      H1544   1.082       .  S
C1545      C1550   1.381       .  A
C1545      C1546   1.408       .  A
C1545      O1551   1.317       .  A
C1546      C1547   1.405       .  A
C1546      H1557   1.082       .  S
C1547      C1556   1.369       .  A
C1547      C1548   1.381       .  A
C1548      C1549   1.387       .  A
C1548      O1554   1.300       .  A
C1549      C1550   1.385       .  A
C1549      H1558   1.083       .  S
C1550      C1553   1.344       .  A
O1551      C1552   1.332       .  A
C1552      C1553   1.380       .  A
C1553      H1559   1.081       .  S
O1554      C1555   1.322       .  A
C1555      C1556   1.393       .  A
C1556      H1560   1.082       .  S
C1561      C1566   1.379       .  A
C1561      C1562   1.411       .  A
C1561      O1567   1.323       .  A
C1562      C1563   1.409       .  A
C1562      H1573   1.082       .  S
C1563      C1572   1.373       .  A
C1563      C1564   1.379       .  A
C1564      C1565   1.408       .  A
C1564      O1570   1.321       .  A
C1565      C1566   1.406       .  A
C1565      H1574   1.082       .  S
C1566      C1569   1.370       .  A
O1567      C1568   1.336       .  A
C1568      C1569   1.394       .  A
C1569      H1575   1.082       .  S
O1570      C1571   1.332       .  A
C1571      C1572   1.395       .  A
C1572      H1576   1.082       .  S
C1577      C1582   1.379       .  A
C1577      C1578   1.407       .  A
C1577      O1583   1.321       .  A
C1578      C1579   1.406       .  A
C1578      H1589   1.083       .  S
C1579      C1588   1.369       .  A
C1579      C1580   1.379       .  A
C1580      C1581   1.411       .  A
C1580      O1586   1.324       .  A
C1581      C1582   1.409       .  A
C1581      H1590   1.082       .  S
C1582      C1585   1.372       .  A
O1583      C1584   1.333       .  A
C1584      C1585   1.394       .  A
C1585      H1591   1.082       .  S
O1586      C1587   1.336       .  A
C1587      C1588   1.393       .  A
C1588      H1592   1.083       .  S
C1593      C1598   1.380       .  A
C1593      C1594   1.410       .  A
C1593      O1599   1.330       .  A
C1594      C1595   1.412       .  A
C1594      H1605   1.083       .  S
C1595      C1604   1.365       .  A
C1595      C1596   1.379       .  A
C1596      C1597   1.406       .  A
C1596      O1602   1.326       .  A
C1597      C1598   1.408       .  A
C1597      H1606   1.083       .  S
C1598      C1601   1.362       .  A
O1599      C1600   1.336       .  A
C1600      C1601   1.395       .  A
C1601      H1607   1.083       .  S
O1602      C1603   1.333       .  A
C1603      C1604   1.396       .  A
C1604      H1608   1.083       .  S
C1609      C1614   1.378       .  A
C1609      C1610   1.415       .  A
C1609      O1615   1.326       .  A
C1610      C1611   1.413       .  A
C1610      H1621   1.083       .  S
C1611      C1620   1.377       .  A
C1611      C1612   1.379       .  A
C1612      C1613   1.408       .  A
C1612      O1618   1.321       .  A
C1613      C1614   1.406       .  A
C1613      H1622   1.082       .  S
C1614      C1617   1.370       .  A
O1615      C1616   1.338       .  A
C1616      C1617   1.395       .  A
C1617      H1623   1.082       .  S
O1618      C1619   1.333       .  A
C1619      C1620   1.398       .  A
C1620      H1624   1.083       .  S
C1625      C1630   1.379       .  A
C1625      C1626   1.408       .  A
C1625      O1631   1.324       .  A
C1626      C1627   1.408       .  A
C1626      H1637   1.082       .  S
C1627      C1636   1.366       .  A
C1627      C1628   1.380       .  A
C1628      C1629   1.408       .  A
C1628      O1634   1.324       .  A
C1629      C1630   1.408       .  A
C1629      H1638   1.082       .  S
C1630      C1633   1.368       .  A
O1631      C1632   1.334       .  A
C1632      C1633   1.394       .  A
C1633      H1639   1.083       .  S
O1634      C1635   1.333       .  A
C1635      C1636   1.394       .  A
C1636      H1640   1.082       .  S
C1641      C1646   1.379       .  A
C1641      C1642   1.407       .  A
C1641      O1647   1.326       .  A
C1642      C1643   1.409       .  A
C1642      H1653   1.082       .  S
C1643      C1652   1.364       .  A
C1643      C1644   1.379       .  A
C1644      C1645   1.410       .  A
C1644      O1650   1.330       .  A
C1645      C1646   1.411       .  A
C1645      H1654   1.082       .  S
C1646      C1649   1.367       .  A
O1647      C1648   1.334       .  A
C1648      C1649   1.395       .  A
C1649      H1655   1.083       .  S
O1650      C1651   1.335       .  A
C1651      C1652   1.397       .  A
C1652      H1656   1.083       .  S
C1657      C1662   1.382       .  A
C1657      C1658   1.406       .  A
C1657      O1663   1.316       .  A
C1658      C1659   1.402       .  A
C1658      H1669   1.082       .  S
C1659      C1668   1.367       .  A
C1659      C1660   1.381       .  A
C1660      C1661   1.386       .  A
C1660      O1666   1.299       .  A
C1661      C1662   1.385       .  A
C1661      H1670   1.083       .  S
C1662      C1665   1.344       .  A
O1663      C1664   1.330       .  A
C1664      C1665   1.381       .  A
C1665      H1671   1.082       .  S
O1666      C1667   1.322       .  A
C1667      C1668   1.391       .  A
C1668      H1672   1.082       .  S
C1673      C1678   1.380       .  A
C1673      C1674   1.387       .  A
C1673      O1679   1.301       .  A
C1674      C1675   1.386       .  A
C1674      H1685   1.083       .  S
C1675      C1684   1.343       .  A
C1675      C1676   1.381       .  A
C1676      C1677   1.409       .  A
C1676      O1682   1.320       .  A
C1677      C1678   1.406       .  A
C1677      H1686   1.082       .  S
C1678      C1681   1.371       .  A
O1679      C1680   1.322       .  A
C1680      C1681   1.394       .  A
C1681      H1687   1.082       .  S
O1682      C1683   1.332       .  A
C1683      C1684   1.383       .  A
C1684      H1688   1.083       .  S
C1689      C1694   1.381       .  A
C1689      C1690   1.387       .  A
C1689      O1695   1.299       .  A
C1690      C1691   1.385       .  A
C1690      H1701   1.083       .  S
C1691      C1700   1.343       .  A
C1691      C1692   1.382       .  A
C1692      C1693   1.406       .  A
C1692      O1698   1.317       .  A
C1693      C1694   1.403       .  A
C1693      H1702   1.082       .  S
C1694      C1697   1.368       .  A
O1695      C1696   1.322       .  A
C1696      C1697   1.391       .  A
C1697      H1703   1.082       .  S
O1698      C1699   1.331       .  A
C1699      C1700   1.381       .  A
C1700      H1704   1.082       .  S
C1705      C1710   1.380       .  A
C1705      C1706   1.407       .  A
C1705      O1711   1.326       .  A
C1706      C1707   1.408       .  A
C1706      H1717   1.082       .  S
C1707      C1716   1.362       .  A
C1707      C1708   1.380       .  A
C1708      C1709   1.408   1_554  A
C1708      O1714   1.328       .  A
C1709      C1710   1.409   1_556  A
C1709      H1718   1.083       .  S
C1710      C1713   1.364       .  A
O1711      C1712   1.333       .  A
C1712      C1713   1.393       .  A
C1713      H1719   1.083   1_554  S
O1714      C1715   1.334       .  A
C1715      C1716   1.395       .  A
C1716      H1720   1.082       .  S
C1721      C1726   1.378       .  A
C1721      C1722   1.411       .  A
C1721      O1727   1.322       .  A
C1722      C1723   1.409       .  A
C1722      H1733   1.082   1_556  S
C1723      C1732   1.373       .  A
C1723      C1724   1.379       .  A
C1724      C1725   1.409       .  A
C1724      O1730   1.321       .  A
C1725      C1726   1.406       .  A
C1725      H1734   1.082       .  S
C1726      C1729   1.369       .  A
O1727      C1728   1.334       .  A
C1728      C1729   1.393       .  A
C1729      H1735   1.081       .  S
O1730      C1731   1.334       .  A
C1731      C1732   1.396       .  A
C1732      H1736   1.083   1_556  S
C1737      C1742   1.380       .  A
C1737      C1738   1.407       .  A
C1737      O1743   1.326       .  A
C1738      C1739   1.408       .  A
C1738      H1749   1.083       .  S
C1739      C1748   1.363       .  A
C1739      C1740   1.380       .  A
C1740      C1741   1.408       .  A
C1740      O1746   1.327       .  A
C1741      C1742   1.409       .  A
C1741      H1750   1.082       .  S
C1742      C1745   1.364       .  A
O1743      C1744   1.334       .  A
C1744      C1745   1.395       .  A
C1745      H1751   1.082       .  S
O1746      C1747   1.334       .  A
C1747      C1748   1.393       .  A
C1748      H1752   1.083       .  S
C1753      C1758   1.379       .  A
C1753      C1754   1.411       .  A
C1753      O1759   1.323       .  A
C1754      C1755   1.410       .  A
C1754      H1765   1.082       .  S
C1755      C1764   1.372       .  A
C1755      C1756   1.379       .  A
C1756      C1757   1.407       .  A
C1756      O1762   1.320       .  A
C1757      C1758   1.405       .  A
C1757      H1766   1.083       .  S
C1758      C1761   1.368       .  A
O1759      C1760   1.335       .  A
C1760      C1761   1.392       .  A
C1761      H1767   1.082       .  S
O1762      C1763   1.333       .  A
C1763      C1764   1.396       .  A
C1764      H1768   1.082       .  S
C1769      C1774   1.379       .  A
C1769      C1770   1.410       .  A
C1769      O1775   1.327       .  A
C1770      C1771   1.411       .  A
C1770      H1781   1.082       .  S
C1771      C1780   1.367       .  A
C1771      C1772   1.380       .  A
C1772      C1773   1.408       .  A
C1772      O1778   1.326       .  A
C1773      C1774   1.408       .  A
C1773      H1782   1.083       .  S
C1774      C1777   1.365       .  A
O1775      C1776   1.336       .  A
C1776      C1777   1.394       .  A
C1777      H1783   1.083       .  S
O1778      C1779   1.334       .  A
C1779      C1780   1.396       .  A
C1780      H1784   1.082       .  S
C1785      C1790   1.380       .  A
C1785      C1786   1.410       .  A
C1785      O1791   1.331       .  A
C1786      C1787   1.412       .  A
C1786      H1797   1.082       .  S
C1787      C1796   1.365       .  A
C1787      C1788   1.380       .  A
C1788      C1789   1.407       .  A
C1788      O1794   1.327       .  A
C1789      C1790   1.409       .  A
C1789      H1798   1.082       .  S
C1790      C1793   1.361       .  A
O1791      C1792   1.336       .  A
C1792      C1793   1.395       .  A
C1793      H1799   1.083       .  S
O1794      C1795   1.334       .  A
C1795      C1796   1.395       .  A
C1796      H1800   1.083       .  S
C1801      C1806   1.380       .  A
C1801      C1802   1.402       .  A
C1801      O1807   1.321       .  A
C1802      C1803   1.403       .  A
C1802      H1813   1.083       .  S
C1803      C1812   1.357       .  A
C1803      C1804   1.381       .  A
C1804      C1805   1.405       .  A
C1804      O1810   1.324       .  A
C1805      C1806   1.406       .  A
C1805      H1814   1.082       .  S
C1806      C1809   1.361       .  A
O1807      C1808   1.330       .  A
C1808      C1809   1.393       .  A
C1809      H1815   1.082       .  S
O1810      C1811   1.332       .  A
C1811      C1812   1.392       .  A
C1812      H1816   1.083       .  S
C1817      C1822   1.379       .  A
C1817      C1818   1.412       .  A
C1817      O1823   1.323       .  A
C1818      C1819   1.410       .  A
C1818      H1829   1.082       .  S
C1819      C1828   1.375       .  A
C1819      C1820   1.378       .  A
C1820      C1821   1.410       .  A
C1820      O1826   1.322       .  A
C1821      C1822   1.407       .  A
C1821      H1830   1.082       .  S
C1822      C1825   1.371       .  A
O1823      C1824   1.335       .  A
C1824      C1825   1.393       .  A
C1825      H1831   1.082       .  S
O1826      C1827   1.335       .  A
C1827      C1828   1.396       .  A
C1828      H1832   1.082       .  S
C1833      C1838   1.381       .  A
C1833      C1834   1.387       .  A
C1833      O1839   1.302       .  A
C1834      C1835   1.387       .  A
C1834      H1845   1.083       .  S
C1835      C1844   1.343       .  A
C1835      C1836   1.383       .  A
C1836      C1837   1.406       .  A
C1836      O1842   1.318       .  A
C1837      C1838   1.403       .  A
C1837      H1846   1.082       .  S
C1838      C1841   1.367       .  A
O1839      C1840   1.323       .  A
C1840      C1841   1.391       .  A
C1841      H1847   1.082       .  S
O1842      C1843   1.330       .  A
C1843      C1844   1.382       .  A
C1844      H1848   1.081       .  S
C1849      C1854   1.382       .  A
C1849      C1850   1.408       .  A
C1849      O1855   1.317       .  A
C1850      C1851   1.404       .  A
C1850      H1861   1.082       .  S
C1851      C1860   1.371       .  A
C1851      C1852   1.381       .  A
C1852      C1853   1.387       .  A
C1852      O1858   1.298       .  A
C1853      C1854   1.384       .  A
C1853      H1862   1.083       .  S
C1854      C1857   1.346       .  A
O1855      C1856   1.331       .  A
C1856      C1857   1.379       .  A
C1857      H1863   1.082       .  S
O1858      C1859   1.322       .  A
C1859      C1860   1.392       .  A
C1860      H1864   1.082       .  S
C1865      C1870   1.382       .  A
C1865      C1866   1.406       .  A
C1865      O1871   1.317       .  A
C1866      C1867   1.403       .  A
C1866      H1877   1.082       .  S
C1867      C1876   1.368       .  A
C1867      C1868   1.382       .  A
C1868      C1869   1.388       .  A
C1868      O1874   1.301       .  A
C1869      C1870   1.386       .  A
C1869      H1878   1.083       .  S
C1870      C1873   1.346       .  A
O1871      C1872   1.331       .  A
C1872      C1873   1.379       .  A
C1873      H1879   1.078       .  S
O1874      C1875   1.322       .  A
C1875      C1876   1.390       .  A
C1876      H1880   1.082       .  S
C1881      C1886   1.380       .  A
C1881      C1882   1.409       .  A
C1881      O1887   1.330       .  A
C1882      C1883   1.410       .  A
C1882      H1893   1.082       .  S
C1883      C1892   1.364       .  A
C1883      C1884   1.379       .  A
C1884      C1885   1.409       .  A
C1884      O1890   1.328       .  A
C1885      C1886   1.411       .  A
C1885      H1894   1.082       .  S
C1886      C1889   1.364       .  A
O1887      C1888   1.335       .  A
C1888      C1889   1.397       .  A
C1889      H1895   1.083       .  S
O1890      C1891   1.335       .  A
C1891      C1892   1.394       .  A
C1892      H1896   1.082       .  S
C1897      C1902   1.379       .  A
C1897      C1898   1.410       .  A
C1897      O1903   1.322       .  A
C1898      C1899   1.408       .  A
C1898      H1909   1.082       .  S
C1899      C1908   1.370       .  A
C1899      C1900   1.379       .  A
C1900      C1901   1.407       .  A
C1900      O1906   1.321       .  A
C1901      C1902   1.406       .  A
C1901      H1910   1.082       .  S
C1902      C1905   1.369       .  A
O1903      C1904   1.335       .  A
C1904      C1905   1.392       .  A
C1905      H1911   1.082       .  S
O1906      C1907   1.333       .  A
C1907      C1908   1.395       .  A
C1908      H1912   1.082       .  S
C1913      C1918   1.379       .  A
C1913      C1914   1.410       .  A
C1913      O1919   1.323       .  A
C1914      C1915   1.407       .  A
C1914      H1925   1.082       .  S
C1915      C1924   1.371       .  A
C1915      C1916   1.379       .  A
C1916      C1917   1.409       .  A
C1916      O1922   1.322       .  A
C1917      C1918   1.408       .  A
C1917      H1926   1.082       .  S
C1918      C1921   1.370       .  A
O1919      C1920   1.335       .  A
C1920      C1921   1.395       .  A
C1921      H1927   1.083       .  S
O1922      C1923   1.334       .  A
C1923      C1924   1.393       .  A
C1924      H1928   1.082       .  S
C1929      C1934   1.380       .  A
C1929      C1930   1.385       .  A
C1929      O1935   1.298       .  A
C1930      C1931   1.384       .  A
C1930      H1941   1.083       .  S
C1931      C1940   1.342       .  A
C1931      C1932   1.381       .  A
C1932      C1933   1.410       .  A
C1932      O1938   1.319       .  A
C1933      C1934   1.406       .  A
C1933      H1942   1.082       .  S
C1934      C1937   1.372       .  A
O1935      C1936   1.322       .  A
C1936      C1937   1.394       .  A
C1937      H1943   1.082       .  S
O1938      C1939   1.332       .  A
C1939      C1940   1.380       .  A
C1940      H1944   1.080       .  S
C1945      C1950   1.380       .  A
C1945      C1946   1.385       .  A
C1945      O1951   1.298       .  A
C1946      C1947   1.383       .  A
C1946      H1957   1.083       .  S
C1947      C1956   1.343       .  A
C1947      C1948   1.382       .  A
C1948      C1949   1.409       .  A
C1948      O1954   1.319       .  A
C1949      C1950   1.405       .  A
C1949      H1958   1.082       .  S
C1950      C1953   1.372       .  A
O1951      C1952   1.322       .  A
C1952      C1953   1.393       .  A
C1953      H1959   1.082       .  S
O1954      C1955   1.332       .  A
C1955      C1956   1.380       .  A
C1956      H1960   1.082       .  S
C1961      C1966   1.380       .  A
C1961      C1962   1.406       .  A
C1961      O1967   1.319       .  A
C1962      C1963   1.404       .  A
C1962      H1973   1.082       .  S
C1963      C1972   1.366       .  A
C1963      C1964   1.380       .  A
C1964      C1965   1.406       .  A
C1964      O1970   1.319       .  A
C1965      C1966   1.404       .  A
C1965      H1974   1.082       .  S
C1966      C1969   1.366       .  A
O1967      C1968   1.332       .  A
C1968      C1969   1.390       .  A
C1969      H1975   1.082       .  S
O1970      C1971   1.332       .  A
C1971      C1972   1.391       .  A
C1972      H1976   1.082       .  S
C1977      C1982   1.379       .  A
C1977      C1978   1.408       .  A
C1977      O1983   1.321       .  A
C1978      C1979   1.406       .  A
C1978      H1989   1.082       .  S
C1979      C1988   1.368       .  A
C1979      C1980   1.378       .  A
C1980      C1981   1.413       .  A
C1980      O1986   1.325       .  A
C1981      C1982   1.412       .  A
C1981      H1990   1.082       .  S
C1982      C1985   1.375       .  A
O1983      C1984   1.334       .  A
C1984      C1985   1.397       .  A
C1985      H1991   1.082       .  S
O1986      C1987   1.337       .  A
C1987      C1988   1.394       .  A
C1988      H1992   1.081       .  S
C1993      C1998   1.379       .  A
C1993      C1994   1.411       .  A
C1993      O1999   1.323       .  A
C1994      C1995   1.408       .  A
C1994      H2005   1.083       .  S
C1995      C2004   1.372       .  A
C1995      C1996   1.379       .  A
C1996      C1997   1.410       .  A
C1996      O2002   1.323       .  A
C1997      C1998   1.409       .  A
C1997      H2006   1.082       .  S
C1998      C2001   1.373       .  A
O1999      C2000   1.335       .  A
C2000      C2001   1.396       .  A
C2001      H2007   1.082       .  S
O2002      C2003   1.334       .  A
C2003      C2004   1.395       .  A
C2004      H2008   1.082       .  S
C2009      C2014   1.379       .  A
C2009      C2010   1.407       .  A
C2009      O2015   1.322       .  A
C2010      C2011   1.406       .  A
C2010      H2021   1.082       .  S
C2011      C2020   1.367       .  A
C2011      C2012   1.378       .  A
C2012      C2013   1.414       .  A
C2012      O2018   1.326       .  A
C2013      C2014   1.412       .  A
C2013      H2022   1.082       .  S
C2014      C2017   1.373       .  A
O2015      C2016   1.332       .  A
C2016      C2017   1.397       .  A
C2017      H2023   1.082       .  S
O2018      C2019   1.338       .  A
C2019      C2020   1.394       .  A
C2020      H2024   1.082       .  S
C2025      C2030   1.378       .  A
C2025      C2026   1.411       .  A
C2025      O2031   1.322       .  A
C2026      C2027   1.408       .  A
C2026      H2037   1.082       .  S
C2027      C2036   1.373       .  A
C2027      C2028   1.379       .  A
C2028      C2029   1.411       .  A
C2028      O2034   1.322       .  A
C2029      C2030   1.409       .  A
C2029      H2038   1.082       .  S
C2030      C2033   1.374       .  A
O2031      C2032   1.335       .  A
C2032      C2033   1.396       .  A
C2033      H2039   1.082       .  S
O2034      C2035   1.334       .  A
C2035      C2036   1.394       .  A
C2036      H2040   1.082       .  S
C2041      C2046   1.379       .  A
C2041      C2042   1.409       .  A
C2041      O2047   1.328       .  A
C2042      C2043   1.410       .  A
C2042      H2053   1.082       .  S
C2043      C2052   1.367       .  A
C2043      C2044   1.379       .  A
C2044      C2045   1.411       .  A
C2044      O2050   1.330       .  A
C2045      C2046   1.413       .  A
C2045      H2054   1.082       .  S
C2046      C2049   1.369       .  A
O2047      C2048   1.335       .  A
C2048      C2049   1.398       .  A
C2049      H2055   1.082       .  S
O2050      C2051   1.336       .  A
C2051      C2052   1.394       .  A
C2052      H2056   1.082       .  S
C2057      C2062   1.379       .  A
C2057      C2058   1.413       .  A
C2057      O2063   1.326       .  A
C2058      C2059   1.411       .  A
C2058      H2069   1.082       .  S
C2059      C2068   1.372       .  A
C2059      C2060   1.379       .  A
C2060      C2061   1.405       .  A
C2060      O2066   1.320       .  A
C2061      C2062   1.404       .  A
C2061      H2070   1.083       .  S
C2062      C2065   1.366       .  A
O2063      C2064   1.337       .  A
C2064      C2065   1.392       .  A
C2065      H2071   1.082       .  S
O2066      C2067   1.331       .  A
C2067      C2068   1.397       .  A
C2068      H2072   1.081       .  S
C2073      C2078   1.380       .  A
C2073      C2074   1.405       .  A
C2073      O2079   1.324       .  A
C2074      C2075   1.405       .  A
C2074      H2085   1.083       .  S
C2075      C2084   1.361       .  A
C2075      C2076   1.380       .  A
C2076      C2077   1.410       .  A
C2076      O2082   1.328       .  A
C2077      C2078   1.412       .  A
C2077      H2086   1.082       .  S
C2078      C2081   1.368       .  A
O2079      C2080   1.332       .  A
C2080      C2081   1.397       .  A
C2081      H2087   1.082       .  S
O2082      C2083   1.335       .  A
C2083      C2084   1.391       .  A
C2084      H2088   1.083       .  S
C2089      C2094   1.381       .  A
C2089      C2090   1.383       .  A
C2089      O2095   1.297       .  A
C2090      C2091   1.382       .  A
C2090      H2101   1.083       .  S
C2091      C2100   1.340       .  A
C2091      C2092   1.381       .  A
C2092      C2093   1.409       .  A
C2092      O2098   1.319       .  A
C2093      C2094   1.406       .  A
C2093      H2102   1.082       .  S
C2094      C2097   1.369       .  A
O2095      C2096   1.319       .  A
C2096      C2097   1.394       .  A
C2097      H2103   1.082       .  S
O2098      C2099   1.333       .  A
C2099      C2100   1.380       .  A
C2100      H2104   1.084       .  S
C2105      C2110   1.382       .  A
C2105      C2106   1.387       .  A
C2105      O2111   1.304       .  A
C2106      C2107   1.386       .  A
C2106      H2117   1.083       .  S
C2107      C2116   1.339       .  A
C2107      C2108   1.379       .  A
C2108      C2109   1.406       .  A
C2108      O2114   1.322       .  A
C2109      C2110   1.407       .  A
C2109      H2118   1.081       .  S
C2110      C2113   1.366       .  A
O2111      C2112   1.322       .  A
C2112      C2113   1.393       .  A
C2113      H2119   1.082       .  S
O2114      C2115   1.332       .  A
C2115      C2116   1.386       .  A
C2116      H2120   1.084       .  S
C2121      C2126   1.383       .  A
C2121      C2122   1.407       .  A
C2121      O2127   1.317       .  A
C2122      C2123   1.403       .  A
C2122      H2133   1.083       .  S
C2123      C2132   1.369       .  A
C2123      C2124   1.381       .  A
C2124      C2125   1.386       .  A
C2124      O2130   1.299       .  A
C2125      C2126   1.384       .  A
C2125      H2134   1.083       .  S
C2126      C2129   1.344       .  A
O2127      C2128   1.331       .  A
C2128      C2129   1.379       .  A
C2129      H2135   1.082       .  S
O2130      C2131   1.322       .  A
C2131      C2132   1.391       .  A
C2132      H2136   1.083       .  S
C2137      C2142   1.380       .  A
C2137      C2138   1.409       .  A
C2137      O2143   1.325       .  A
C2138      C2139   1.409       .  A
C2138      H2149   1.082       .  S
C2139      C2148   1.368       .  A
C2139      C2140   1.380       .  A
C2140      C2141   1.405       .  A
C2140      O2146   1.321       .  A
C2141      C2142   1.404       .  A
C2141      H2150   1.083       .  S
C2142      C2145   1.362       .  A
O2143      C2144   1.334       .  A
C2144      C2145   1.392       .  A
C2145      H2151   1.083   1_556  S
O2146      C2147   1.332       .  A
C2147      C2148   1.395       .  A
C2148      H2152   1.082       .  S
C2153      C2158   1.380       .  A
C2153      C2154   1.408       .  A
C2153      O2159   1.328       .  A
C2154      C2155   1.409       .  A
C2154      H2165   1.082       .  S
C2155      C2164   1.363       .  A
C2155      C2156   1.380       .  A
C2156      C2157   1.405       .  A
C2156      O2162   1.325       .  A
C2157      C2158   1.407       .  A
C2157      H2166   1.082       .  S
C2158      C2161   1.360       .  A
O2159      C2160   1.334       .  A
C2160      C2161   1.394       .  A
C2161      H2167   1.083       .  S
O2162      C2163   1.333       .  A
C2163      C2164   1.395       .  A
C2164      H2168   1.083       .  S
C2169      C2174   1.379       .  A
C2169      C2170   1.408       .  A
C2169      O2175   1.320       .  A
C2170      C2171   1.405       .  A
C2170      H2181   1.082       .  S
C2171      C2180   1.370       .  A
C2171      C2172   1.378       .  A
C2172      C2173   1.415       .  A
C2172      O2178   1.326       .  A
C2173      C2174   1.413       .  A
C2173      H2182   1.082       .  S
C2174      C2177   1.377       .  A
O2175      C2176   1.334       .  A
C2176      C2177   1.398       .  A
C2177      H2183   1.082       .  S
O2178      C2179   1.337       .  A
C2179      C2180   1.392       .  A
C2180      H2184   1.082       .  S
C2185      C2190   1.379       .  A
C2185      C2186   1.409       .  A
C2185      O2191   1.326       .  A
C2186      C2187   1.410       .  A
C2186      H2197   1.082       .  S
C2187      C2196   1.366       .  A
C2187      C2188   1.380       .  A
C2188      C2189   1.407       .  A
C2188      O2194   1.326       .  A
C2189      C2190   1.407       .  A
C2189      H2198   1.082       .  S
C2190      C2193   1.364       .  A
O2191      C2192   1.335       .  A
C2192      C2193   1.394       .  A
C2193      H2199   1.082       .  S
O2194      C2195   1.333       .  A
C2195      C2196   1.396       .  A
C2196      H2200   1.083       .  S
C2201      C2206   1.380       .  A
C2201      C2202   1.405       .  A
C2201      O2207   1.327       .  A
C2202      C2203   1.408       .  A
C2202      H2213   1.082       .  S
C2203      C2212   1.358       .  A
C2203      C2204   1.380       .  A
C2204      C2205   1.409       .  A
C2204      O2210   1.331       .  A
C2205      C2206   1.411       .  A
C2205      H2214   1.082       .  S
C2206      C2209   1.364       .  A
O2207      C2208   1.333       .  A
C2208      C2209   1.395       .  A
C2209      H2215   1.082       .  S
O2210      C2211   1.334       .  A
C2211      C2212   1.395       .  A
C2212      H2216   1.083       .  S
C2217      C2222   1.379       .  A
C2217      C2218   1.411       .  A
C2217      O2223   1.323       .  A
C2218      C2219   1.408       .  A
C2218      H2229   1.082       .  S
C2219      C2228   1.372       .  A
C2219      C2220   1.379       .  A
C2220      C2221   1.409       .  A
C2220      O2226   1.321       .  A
C2221      C2222   1.407       .  A
C2221      H2230   1.082       .  S
C2222      C2225   1.371       .  A
O2223      C2224   1.335       .  A
C2224      C2225   1.395       .  A
C2225      H2231   1.082       .  S
O2226      C2227   1.334       .  A
C2227      C2228   1.394       .  A
C2228      H2232   1.082       .  S
C2233      C2238   1.381       .  A
C2233      C2234   1.389       .  A
C2233      O2239   1.301       .  A
C2234      C2235   1.387       .  A
C2234      H2245   1.083       .  S
C2235      C2244   1.346       .  A
C2235      C2236   1.382       .  A
C2236      C2237   1.406       .  A
C2236      O2242   1.317       .  A
C2237      C2238   1.403       .  A
C2237      H2246   1.082       .  S
C2238      C2241   1.368       .  A
O2239      C2240   1.324       .  A
C2240      C2241   1.390       .  A
C2241      H2247   1.082       .  S
O2242      C2243   1.330       .  A
C2243      C2244   1.382       .  A
C2244      H2248   1.083       .  S
C2249      C2254   1.382       .  A
C2249      C2250   1.407       .  A
C2249      O2255   1.318       .  A
C2250      C2251   1.404       .  A
C2250      H2261   1.082       .  S
C2251      C2260   1.369       .  A
C2251      C2252   1.382       .  A
C2252      C2253   1.386       .  A
C2252      O2258   1.300       .  A
C2253      C2254   1.384       .  A
C2253      H2262   1.083       .  S
C2254      C2257   1.343       .  A
O2255      C2256   1.331       .  A
C2256      C2257   1.380       .  A
C2257      H2263   1.081       .  S
O2258      C2259   1.321       .  A
C2259      C2260   1.391       .  A
C2260      H2264   1.082       .  S
C2265      C2270   1.380       .  A
C2265      C2266   1.387       .  A
C2265      O2271   1.301       .  A
C2266      C2267   1.386       .  A
C2266      H2277   1.083       .  S
C2267      C2276   1.344       .  A
C2267      C2268   1.381       .  A
C2268      C2269   1.408       .  A
C2268      O2274   1.318       .  A
C2269      C2270   1.405       .  A
C2269      H2278   1.082       .  S
C2270      C2273   1.368       .  A
O2271      C2272   1.323       .  A
C2272      C2273   1.393       .  A
C2273      H2279   1.082       .  S
O2274      C2275   1.332       .  A
C2275      C2276   1.381       .  A
C2276      H2280   1.082       .  S
C2281      C2286   1.380       .  A
C2281      C2282   1.410       .  A
C2281      O2287   1.330       .  A
C2282      C2283   1.412       .  A
C2282      H2293   1.083       .  S
C2283      C2292   1.365       .  A
C2283      C2284   1.380       .  A
C2284      C2285   1.407       .  A
C2284      O2290   1.327       .  A
C2285      C2286   1.409       .  A
C2285      H2294   1.082       .  S
C2286      C2289   1.362       .  A
O2287      C2288   1.335       .  A
C2288      C2289   1.395       .  A
C2289      H2295   1.083       .  S
O2290      C2291   1.334       .  A
C2291      C2292   1.395       .  A
C2292      H2296   1.082       .  S
C2297      C2302   1.379       .  A
C2297      C2298   1.408       .  A
C2297      O2303   1.321       .  A
C2298      C2299   1.406       .  A
C2298      H2309   1.082       .  S
C2299      C2308   1.369       .  A
C2299      C2300   1.379       .  A
C2300      C2301   1.409       .  A
C2300      O2306   1.322       .  A
C2301      C2302   1.408       .  A
C2301      H2310   1.082       .  S
C2302      C2305   1.370       .  A
O2303      C2304   1.333       .  A
C2304      C2305   1.393       .  A
C2305      H2311   1.082       .  S
O2306      C2307   1.334       .  A
C2307      C2308   1.393       .  A
C2308      H2312   1.083       .  S
C2313      C2318   1.379       .  A
C2313      C2314   1.409       .  A
C2313      O2319   1.320       .  A
C2314      C2315   1.407       .  A
C2314      H2325   1.082       .  S
C2315      C2324   1.371       .  A
C2315      C2316   1.379       .  A
C2316      C2317   1.407       .  A
C2316      O2322   1.319       .  A
C2317      C2318   1.405       .  A
C2317      H2326   1.082       .  S
C2318      C2321   1.368       .  A
O2319      C2320   1.333       .  A
C2320      C2321   1.391       .  A
C2321      H2327   1.082       .  S
O2322      C2323   1.334       .  A
C2323      C2324   1.394       .  A
C2324      H2328   1.082       .  S
C2329      C2334   1.379       .  A
C2329      C2330   1.414       .  A
C2329      O2335   1.329       .  A
C2330      C2331   1.414       .  A
C2330      H2341   1.082       .  S
C2331      C2340   1.374       .  A
C2331      C2332   1.379       .  A
C2332      C2333   1.407       .  A
C2332      O2338   1.324       .  A
C2333      C2334   1.407       .  A
C2333      H2342   1.082       .  S
C2334      C2337   1.365       .  A
O2335      C2336   1.337       .  A
C2336      C2337   1.392       .  A
C2337      H2343   1.083       .  S
O2338      C2339   1.334       .  A
C2339      C2340   1.399       .  A
C2340      H2344   1.082       .  S
C2345      C2350   1.379       .  A
C2345      C2346   1.410       .  A
C2345      O2351   1.328       .  A
C2346      C2347   1.411       .  A
C2346      H2357   1.082       .  S
C2347      C2356   1.366       .  A
C2347      C2348   1.379       .  A
C2348      C2349   1.410       .  A
C2348      O2354   1.329       .  A
C2349      C2350   1.411       .  A
C2349      H2358   1.082       .  S
C2350      C2353   1.367       .  A
O2351      C2352   1.335       .  A
C2352      C2353   1.396       .  A
C2353      H2359   1.082       .  S
O2354      C2355   1.335       .  A
C2355      C2356   1.397       .  A
C2356      H2360   1.083       .  S
C2361      C2366   1.379       .  A
C2361      C2362   1.408       .  A
C2361      O2367   1.323       .  A
C2362      C2363   1.407       .  A
C2362      H2373   1.083       .  S
C2363      C2372   1.368       .  A
C2363      C2364   1.378       .  A
C2364      C2365   1.416       .  A
C2364      O2370   1.329       .  A
C2365      C2366   1.415       .  A
C2365      H2374   1.082       .  S
C2366      C2369   1.377       .  A
O2367      C2368   1.333       .  A
C2368      C2369   1.399       .  A
C2369      H2375   1.082       .  S
O2370      C2371   1.339       .  A
C2371      C2372   1.394       .  A
C2372      H2376   1.083       .  S
C2377      C2382   1.380       .  A
C2377      C2378   1.409       .  A
C2377      O2383   1.322       .  A
C2378      C2379   1.407       .  A
C2378      H2389   1.082       .  S
C2379      C2388   1.369       .  A
C2379      C2380   1.380       .  A
C2380      C2381   1.405       .  A
C2380      O2386   1.319       .  A
C2381      C2382   1.404       .  A
C2381      H2390   1.083       .  S
C2382      C2385   1.365       .  A
O2383      C2384   1.334       .  A
C2384      C2385   1.392       .  A
C2385      H2391   1.083       .  S
O2386      C2387   1.332       .  A
C2387      C2388   1.394       .  A
C2388      H2392   1.082       .  S
C2393      C2398   1.381       .  A
C2393      C2394   1.410       .  A
C2393      O2399   1.322       .  A
C2394      C2395   1.408       .  A
C2394      H2405   1.082       .  S
C2395      C2404   1.372       .  A
C2395      C2396   1.381       .  A
C2396      C2397   1.386       .  A
C2396      O2402   1.300       .  A
C2397      C2398   1.384       .  A
C2397      H2406   1.083       .  S
C2398      C2401   1.341       .  A
O2399      C2400   1.333       .  A
C2400      C2401   1.381       .  A
C2401      H2407   1.083       .  S
O2402      C2403   1.322       .  A
C2403      C2404   1.394       .  A
C2404      H2408   1.082       .  S
C2409      C2414   1.383       .  A
C2409      C2410   1.404       .  A
C2409      O2415   1.314       .  A
C2410      C2411   1.401       .  A
C2410      H2421   1.082       .  S
C2411      C2420   1.365       .  A
C2411      C2412   1.381       .  A
C2412      C2413   1.386       .  A
C2412      O2418   1.298       .  A
C2413      C2414   1.384       .  A
C2413      H2422   1.083       .  S
C2414      C2417   1.343       .  A
O2415      C2416   1.329       .  A
C2416      C2417   1.381       .  A
C2417      H2423   1.083       .  S
O2418      C2419   1.321       .  A
C2419      C2420   1.391       .  A
C2420      H2424   1.082       .  S
C2425      C2430   1.378       .  A
C2425      C2426   1.412       .  A
C2425      O2431   1.323       .  A
C2426      C2427   1.410       .  A
C2426      H2437   1.082       .  S
C2427      C2436   1.373       .  A
C2427      C2428   1.379       .  A
C2428      C2429   1.409   1_655  A
C2428      O2434   1.322   1_655  A
C2429      C2430   1.407   1_455  A
C2429      H2438   1.082       .  S
C2430      C2433   1.372   1_655  A
O2431      C2432   1.336       .  A
C2432      C2433   1.394   1_655  A
C2433      H2439   1.082       .  S
O2434      C2435   1.333   1_455  A
C2435      C2436   1.395       .  A
C2436      H2440   1.082       .  S
C2441      C2446   1.379       .  A
C2441      C2442   1.409       .  A
C2441      O2447   1.322       .  A
C2442      C2443   1.407       .  A
C2442      H2453   1.082       .  S
C2443      C2452   1.370       .  A
C2443      C2444   1.379       .  A
C2444      C2445   1.410       .  A
C2444      O2450   1.323       .  A
C2445      C2446   1.408       .  A
C2445      H2454   1.082       .  S
C2446      C2449   1.371       .  A
O2447      C2448   1.334       .  A
C2448      C2449   1.394       .  A
C2449      H2455   1.082       .  S
O2450      C2451   1.334       .  A
C2451      C2452   1.394       .  A
C2452      H2456   1.082       .  S
C2457      C2462   1.380       .  A
C2457      C2458   1.408       .  A
C2457      O2463   1.328       .  A
C2458      C2459   1.409       .  A
C2458      H2469   1.082       .  S
C2459      C2468   1.364       .  A
C2459      C2460   1.380       .  A
C2460      C2461   1.408       .  A
C2460      O2466   1.327       .  A
C2461      C2462   1.410       .  A
C2461      H2470   1.082       .  S
C2462      C2465   1.365       .  A
O2463      C2464   1.335       .  A
C2464      C2465   1.396       .  A
C2465      H2471   1.083       .  S
O2466      C2467   1.334       .  A
C2467      C2468   1.394       .  A
C2468      H2472   1.082       .  S
C2473      C2478   1.382       .  A
C2473      C2474   1.408       .  A
C2473      O2479   1.317       .  A
C2474      C2475   1.404       .  A
C2474      H2485   1.082       .  S
C2475      C2484   1.369       .  A
C2475      C2476   1.380       .  A
C2476      C2477   1.386       .  A
C2476      O2482   1.299       .  A
C2477      C2478   1.384       .  A
C2477      H2486   1.083       .  S
C2478      C2481   1.343       .  A
O2479      C2480   1.331       .  A
C2480      C2481   1.379       .  A
C2481      H2487   1.082       .  S
O2482      C2483   1.322       .  A
C2483      C2484   1.393       .  A
C2484      H2488   1.082       .  S
C2489      C2494   1.381       .  A
C2489      C2490   1.386       .  A
C2489      O2495   1.300       .  A
C2490      C2491   1.385       .  A
C2490      H2501   1.083       .  S
C2491      C2500   1.342       .  A
C2491      C2492   1.382       .  A
C2492      C2493   1.408       .  A
C2492      O2498   1.319       .  A
C2493      C2494   1.405       .  A
C2493      H2502   1.082       .  S
C2494      C2497   1.369       .  A
O2495      C2496   1.322       .  A
C2496      C2497   1.392       .  A
C2497      H2503   1.082       .  S
O2498      C2499   1.331       .  A
C2499      C2500   1.381       .  A
C2500      H2504   1.082       .  S
C2505      C2510   1.382       .  A
C2505      C2506   1.409       .  A
C2505      O2511   1.319       .  A
C2506      C2507   1.406       .  A
C2506      H2517   1.082       .  S
C2507      C2516   1.370       .  A
C2507      C2508   1.380       .  A
C2508      C2509   1.384       .  A
C2508      O2514   1.297       .  A
C2509      C2510   1.382       .  A
C2509      H2518   1.083       .  S
C2510      C2513   1.341       .  A
O2511      C2512   1.333       .  A
C2512      C2513   1.379       .  A
C2513      H2519   1.083       .  S
O2514      C2515   1.321       .  A
C2515      C2516   1.394       .  A
C2516      H2520   1.082       .  S
C2521      C2526   1.381       .  A
C2521      C2522   1.389       .  A
C2521      O2527   1.300       .  A
C2522      C2523   1.386       .  A
C2522      H2533   1.083       .  S
C2523      C2532   1.348       .  A
C2523      C2524   1.382       .  A
C2524      C2525   1.406       .  A
C2524      O2530   1.315       .  A
C2525      C2526   1.403       .  A
C2525      H2534   1.082       .  S
C2526      C2529   1.370       .  A
O2527      C2528   1.324       .  A
C2528      C2529   1.391       .  A
C2529      H2535   1.082       .  S
O2530      C2531   1.330       .  A
C2531      C2532   1.381       .  A
C2532      H2536   1.082       .  S
C2537      C2542   1.381       .  A
C2537      C2538   1.405       .  A
C2537      O2543   1.324       .  A
C2538      C2539   1.406       .  A
C2538      H2549   1.082       .  S
C2539      C2548   1.362       .  A
C2539      C2540   1.380       .  A
C2540      C2541   1.405       .  A
C2540      O2546   1.323       .  A
C2541      C2542   1.406       .  A
C2541      H2550   1.083       .  S
C2542      C2545   1.361       .  A
O2543      C2544   1.331       .  A
C2544      C2545   1.391       .  A
C2545      H2551   1.083       .  S
O2546      C2547   1.332       .  A
C2547      C2548   1.393       .  A
C2548      H2552   1.082       .  S
C2553      C2558   1.378       .  A
C2553      C2554   1.413       .  A
C2553      O2559   1.325       .  A
C2554      C2555   1.410       .  A
C2554      H2565   1.082       .  S
C2555      C2564   1.375       .  A
C2555      C2556   1.379       .  A
C2556      C2557   1.411       .  A
C2556      O2562   1.323       .  A
C2557      C2558   1.409       .  A
C2557      H2566   1.083       .  S
C2558      C2561   1.373       .  A
O2559      C2560   1.336       .  A
C2560      C2561   1.395       .  A
C2561      H2567   1.082       .  S
O2562      C2563   1.334       .  A
C2563      C2564   1.395       .  A
C2564      H2568   1.082       .  S
C2569      C2574   1.378       .  A
C2569      C2570   1.412       .  A
C2569      O2575   1.323       .  A
C2570      C2571   1.409       .  A
C2570      H2581   1.082   1_554  S
C2571      C2580   1.375       .  A
C2571      C2572   1.378       .  A
C2572      C2573   1.410       .  A
C2572      O2578   1.321       .  A
C2573      C2574   1.407       .  A
C2573      H2582   1.082       .  S
C2574      C2577   1.372       .  A
O2575      C2576   1.335       .  A
C2576      C2577   1.395       .  A
C2577      H2583   1.082       .  S
O2578      C2579   1.336       .  A
C2579      C2580   1.396       .  A
C2580      H2584   1.082   1_554  S
C2585      C2590   1.381       .  A
C2585      C2586   1.409       .  A
C2585      O2591   1.320       .  A
C2586      C2587   1.406       .  A
C2586      H2597   1.082       .  S
C2587      C2596   1.371       .  A
C2587      C2588   1.381       .  A
C2588      C2589   1.390       .  A
C2588      O2594   1.303       .  A
C2589      C2590   1.388       .  A
C2589      H2598   1.083       .  S
C2590      C2593   1.349       .  A
O2591      C2592   1.333       .  A
C2592      C2593   1.381       .  A
C2593      H2599   1.081       .  S
O2594      C2595   1.323       .  A
C2595      C2596   1.392       .  A
C2596      H2600   1.082       .  S
C2601      C2606   1.381       .  A
C2601      C2602   1.385       .  A
C2601      O2607   1.297       .  A
C2602      C2603   1.382       .  A
C2602      H2613   1.083       .  S
C2603      C2612   1.342       .  A
C2603      C2604   1.382       .  A
C2604      C2605   1.407       .  A
C2604      O2610   1.316       .  A
C2605      C2606   1.404       .  A
C2605      H2614   1.082       .  S
C2606      C2609   1.370       .  A
O2607      C2608   1.321       .  A
C2608      C2609   1.393       .  A
C2609      H2615   1.081       .  S
O2610      C2611   1.330       .  A
C2611      C2612   1.380       .  A
C2612      H2616   1.083       .  S
C2617      C2622   1.381       .  A
C2617      C2618   1.386       .  A
C2617      O2623   1.299       .  A
C2618      C2619   1.384       .  A
C2618      H2629   1.082       .  S
C2619      C2628   1.343       .  A
C2619      C2620   1.381       .  A
C2620      C2621   1.410       .  A
C2620      O2626   1.321       .  A
C2621      C2622   1.407       .  A
C2621      H2630   1.082       .  S
C2622      C2625   1.372       .  A
O2623      C2624   1.322       .  A
C2624      C2625   1.394       .  A
C2625      H2631   1.082       .  S
O2626      C2627   1.332       .  A
C2627      C2628   1.382       .  A
C2628      H2632   1.082       .  S
C2633      C2638   1.381       .  A
C2633      C2634   1.390       .  A
C2633      O2639   1.304       .  A
C2634      C2635   1.388       .  A
C2634      H2645   1.083       .  S
C2635      C2644   1.346       .  A
C2635      C2636   1.381       .  A
C2636      C2637   1.408       .  A
C2636      O2642   1.320       .  A
C2637      C2638   1.405       .  A
C2637      H2646   1.082       .  S
C2638      C2641   1.369       .  A
O2639      C2640   1.324       .  A
C2640      C2641   1.392       .  A
C2641      H2647   1.082       .  S
O2642      C2643   1.331       .  A
C2643      C2644   1.383       .  A
C2644      H2648   1.082       .  S
C2649      C2654   1.379       .  A
C2649      C2650   1.411       .  A
C2649      O2655   1.330       .  A
C2650      C2651   1.412       .  A
C2650      H2661   1.082       .  S
C2651      C2660   1.367       .  A
C2651      C2652   1.380       .  A
C2652      C2653   1.408       .  A
C2652      O2658   1.328       .  A
C2653      C2654   1.410       .  A
C2653      H2662   1.082       .  S
C2654      C2657   1.365       .  A
O2655      C2656   1.336       .  A
C2656      C2657   1.397       .  A
C2657      H2663   1.082       .  S
O2658      C2659   1.334       .  A
C2659      C2660   1.395       .  A
C2660      H2664   1.082       .  S
C2665      C2670   1.380       .  A
C2665      C2666   1.406   1_455  A
C2665      O2671   1.325       .  A
C2666      C2667   1.407   1_655  A
C2666      H2677   1.082       .  S
C2667      C2676   1.362   1_455  A
C2667      C2668   1.380       .  A
C2668      C2669   1.411       .  A
C2668      O2674   1.329       .  A
C2669      C2670   1.413       .  A
C2669      H2678   1.082       .  S
C2670      C2673   1.369       .  A
O2671      C2672   1.333       .  A
C2672      C2673   1.398       .  A
C2673      H2679   1.082       .  S
O2674      C2675   1.335       .  A
C2675      C2676   1.391   1_455  A
C2676      H2680   1.083       .  S
C2681      C2686   1.380       .  A
C2681      C2682   1.408       .  A
C2681      O2687   1.327       .  A
C2682      C2683   1.409       .  A
C2682      H2693   1.082       .  S
C2683      C2692   1.364       .  A
C2683      C2684   1.379       .  A
C2684      C2685   1.409       .  A
C2684      O2690   1.327       .  A
C2685      C2686   1.410       .  A
C2685      H2694   1.082       .  S
C2686      C2689   1.366       .  A
O2687      C2688   1.334       .  A
C2688      C2689   1.396       .  A
C2689      H2695   1.082       .  S
O2690      C2691   1.334       .  A
C2691      C2692   1.394       .  A
C2692      H2696   1.082       .  S
C2697      C2702   1.379       .  A
C2697      C2698   1.408       .  A
C2697      O2703   1.321       .  A
C2698      C2699   1.406       .  A
C2698      H2709   1.082       .  S
C2699      C2708   1.369       .  A
C2699      C2700   1.379       .  A
C2700      C2701   1.409       .  A
C2700      O2706   1.322       .  A
C2701      C2702   1.407       .  A
C2701      H2710   1.082       .  S
C2702      C2705   1.370       .  A
O2703      C2704   1.333       .  A
C2704      C2705   1.394       .  A
C2705      H2711   1.082       .  S
O2706      C2707   1.335       .  A
C2707      C2708   1.393       .  A
C2708      H2712   1.082       .  S
C2713      C2718   1.380       .  A
C2713      C2714   1.405       .  A
C2713      O2719   1.324       .  A
C2714      C2715   1.405       .  A
C2714      H2725   1.083       .  S
C2715      C2724   1.362       .  A
C2715      C2716   1.380       .  A
C2716      C2717   1.412       .  A
C2716      O2722   1.329       .  A
C2717      C2718   1.413       .  A
C2717      H2726   1.082       .  S
C2718      C2721   1.371       .  A
O2719      C2720   1.332       .  A
C2720      C2721   1.398       .  A
C2721      H2727   1.082       .  S
O2722      C2723   1.335       .  A
C2723      C2724   1.391       .  A
C2724      H2728   1.083       .  S
C2729      C2734   1.380       .  A
C2729      C2730   1.404       .  A
C2729      O2735   1.325       .  A
C2730      C2731   1.406       .  A
C2730      H2741   1.082       .  S
C2731      C2740   1.359       .  A
C2731      C2732   1.380       .  A
C2732      C2733   1.409       .  A
C2732      O2738   1.329       .  A
C2733      C2734   1.411       .  A
C2733      H2742   1.082   1_565  S
C2734      C2737   1.365   1_565  A
O2735      C2736   1.332       .  A
C2736      C2737   1.395   1_565  A
C2737      H2743   1.082   1_455  S
O2738      C2739   1.335       .  A
C2739      C2740   1.393       .  A
C2740      H2744   1.083       .  S
C2745      C2750   1.380       .  A
C2745      C2746   1.406   1_455  A
C2745      O2751   1.325   1_455  A
C2746      C2747   1.407       .  A
C2746      H2757   1.082       .  S
C2747      C2756   1.363       .  A
C2747      C2748   1.380   1_655  A
C2748      C2749   1.409       .  A
C2748      O2754   1.327       .  A
C2749      C2750   1.410       .  A
C2749      H2758   1.082       .  S
C2750      C2753   1.367       .  A
O2751      C2752   1.333   1_655  A
C2752      C2753   1.396       .  A
C2753      H2759   1.083       .  S
O2754      C2755   1.334       .  A
C2755      C2756   1.392   1_455  A
C2756      H2760   1.082       .  S
C2761      C2766   1.380       .  A
C2761      C2762   1.402       .  A
C2761      O2767   1.323       .  A
C2762      C2763   1.404       .  A
C2762      H2773   1.083       .  S
C2763      C2772   1.356       .  A
C2763      C2764   1.380       .  A
C2764      C2765   1.412       .  A
C2764      O2770   1.331       .  A
C2765      C2766   1.414       .  A
C2765      H2774   1.083       .  S
C2766      C2769   1.368       .  A
O2767      C2768   1.331       .  A
C2768      C2769   1.398       .  A
C2769      H2775   1.083       .  S
O2770      C2771   1.336       .  A
C2771      C2772   1.391       .  A
C2772      H2776   1.083       .  S
C2777      C2782   1.381       .  A
C2777      C2778   1.388       .  A
C2777      O2783   1.301       .  A
C2778      C2779   1.386       .  A
C2778      H2789   1.083       .  S
C2779      C2788   1.345       .  A
C2779      C2780   1.381       .  A
C2780      C2781   1.406       .  A
C2780      O2786   1.317       .  A
C2781      C2782   1.404       .  A
C2781      H2790   1.082       .  S
C2782      C2785   1.369       .  A
O2783      C2784   1.323       .  A
C2784      C2785   1.392       .  A
C2785      H2791   1.082       .  S
O2786      C2787   1.330       .  A
C2787      C2788   1.381       .  A
C2788      H2792   1.082       .  S
C2793      C2798   1.382       .  A
C2793      C2794   1.408       .  A
C2793      O2799   1.318       .  A
C2794      C2795   1.405       .  A
C2794      H2805   1.082       .  S
C2795      C2804   1.370       .  A
C2795      C2796   1.380       .  A
C2796      C2797   1.387       .  A
C2796      O2802   1.299       .  A
C2797      C2798   1.385       .  A
C2797      H2806   1.083       .  S
C2798      C2801   1.344       .  A
O2799      C2800   1.331       .  A
C2800      C2801   1.381       .  A
C2801      H2807   1.083       .  S
O2802      C2803   1.322       .  A
C2803      C2804   1.393       .  A
C2804      H2808   1.082       .  S
C2809      C2814   1.385       .  A
C2809      C2810   1.390       .  A
C2809      O2815   1.311       .  A
C2810      C2811   1.391       .  A
C2810      H2821   1.083       .  S
C2811      C2820   1.344       .  A
C2811      C2812   1.383       .  A
C2812      C2813   1.402       .  A
C2812      O2818   1.322       .  A
C2813      C2814   1.404       .  A
C2813      H2822   1.082       .  S
C2814      C2817   1.358       .  A
O2815      C2816   1.321       .  A
C2816      C2817   1.388       .  A
C2817      H2823   1.083       .  S
O2818      C2819   1.330       .  A
C2819      C2820   1.383       .  A
C2820      H2824   1.083       .  S
C2825      C2830   1.383       .  A
C2825      C2826   1.390       .  A
C2825      O2831   1.308       .  A
C2826      C2827   1.391       .  A
C2826      H2837   1.061       .  S
C2827      C2836   1.339       .  A
C2827      C2828   1.381       .  A
C2828      C2829   1.402       .  A
C2828      O2834   1.322       .  A
C2829      C2830   1.405       .  A
C2829      H2838   1.082       .  S
C2830      C2833   1.359       .  A
O2831      C2832   1.321       .  A
C2832      C2833   1.388       .  A
C2833      H2839   1.086   1_655  S
O2834      C2835   1.329       .  A
C2835      C2836   1.386       .  A
C2836      H2840   1.076       .  S
C2841      C2846   1.379       .  A
C2841      C2842   1.407       .  A
C2841      O2847   1.317       .  A
C2842      C2843   1.404       .  A
C2842      H2853   1.082       .  S
C2843      C2852   1.368       .  A
C2843      C2844   1.380       .  A
C2844      C2845   1.406       .  A
C2844      O2850   1.317       .  A
C2845      C2846   1.403       .  A
C2845      H2854   1.082       .  S
C2846      C2849   1.369       .  A
O2847      C2848   1.333       .  A
C2848      C2849   1.391       .  A
C2849      H2855   1.082       .  S
O2850      C2851   1.331       .  A
C2851      C2852   1.392       .  A
C2852      H2856   1.082       .  S
C2857      C2862   1.380       .  A
C2857      C2858   1.405       .  A
C2857      O2863   1.319       .  A
C2858      C2859   1.403       .  A
C2858      H2869   1.083       .  S
C2859      C2868   1.366       .  A
C2859      C2860   1.379       .  A
C2860      C2861   1.408       .  A
C2860      O2866   1.320       .  A
C2861      C2862   1.406       .  A
C2861      H2870   1.082       .  S
C2862      C2865   1.368       .  A
O2863      C2864   1.331       .  A
C2864      C2865   1.394       .  A
C2865      H2871   1.082       .  S
O2866      C2867   1.333       .  A
C2867      C2868   1.391       .  A
C2868      H2872   1.082       .  S
C2873      C2878   1.379       .  A
C2873      C2874   1.409       .  A
C2873      O2879   1.321       .  A
C2874      C2875   1.407       .  A
C2874      H2885   1.082       .  S
C2875      C2884   1.370       .  A
C2875      C2876   1.379       .  A
C2876      C2877   1.409       .  A
C2876      O2882   1.321       .  A
C2877      C2878   1.407       .  A
C2877      H2886   1.082       .  S
C2878      C2881   1.372       .  A
O2879      C2880   1.335       .  A
C2880      C2881   1.394       .  A
C2881      H2887   1.082       .  S
O2882      C2883   1.333       .  A
C2883      C2884   1.395       .  A
C2884      H2888   1.082       .  S
C2889      C2894   1.381       .  A
C2889      C2890   1.412       .  A
C2889      O2895   1.323       .  A
C2890      C2891   1.409       .  A
C2890      H2901   1.080       .  S
C2891      C2900   1.373       .  A
C2891      C2892   1.380       .  A
C2892      C2893   1.389       .  A
C2892      O2898   1.303       .  A
C2893      C2894   1.388       .  A
C2893      H2902   1.081       .  S
C2894      C2897   1.346       .  A
O2895      C2896   1.334       .  A
C2896      C2897   1.383       .  A
C2897      H2903   1.078       .  S
O2898      C2899   1.323       .  A
C2899      C2900   1.395       .  A
C2900      H2904   1.081       .  S
C2905      C2910   1.381       .  A
C2905      C2906   1.385       .  A
C2905      O2911   1.301       .  A
C2906      C2907   1.385       .  A
C2906      H2917   1.083       .  S
C2907      C2916   1.342       .  A
C2907      C2908   1.382       .  A
C2908      C2909   1.408       .  A
C2908      O2914   1.319       .  A
C2909      C2910   1.406       .  A
C2909      H2918   1.082       .  S
C2910      C2913   1.368       .  A
O2911      C2912   1.321       .  A
C2912      C2913   1.393       .  A
C2913      H2919   1.082       .  S
O2914      C2915   1.332       .  A
C2915      C2916   1.379       .  A
C2916      H2920   1.082       .  S
C2921      C2926   1.381       .  A
C2921      C2922   1.386       .  A
C2921      O2927   1.301       .  A
C2922      C2923   1.385       .  A
C2922      H2933   1.083       .  S
C2923      C2932   1.343       .  A
C2923      C2924   1.382       .  A
C2924      C2925   1.407       .  A
C2924      O2930   1.318       .  A
C2925      C2926   1.405       .  A
C2925      H2934   1.082       .  S
C2926      C2929   1.368       .  A
O2927      C2928   1.321       .  A
C2928      C2929   1.392       .  A
C2929      H2935   1.082       .  S
O2930      C2931   1.331       .  A
C2931      C2932   1.379       .  A
C2932      H2936   1.082       .  S
C2937      C2942   1.381       .  A
C2937      C2938   1.387       .  A
C2937      O2943   1.301       .  A
C2938      C2939   1.385       .  A
C2938      H2949   1.084       .  S
C2939      C2948   1.342       .  A
C2939      C2940   1.380       .  A
C2940      C2941   1.410       .  A
C2940      O2946   1.321       .  A
C2941      C2942   1.407       .  A
C2941      H2950   1.082       .  S
C2942      C2945   1.370       .  A
O2943      C2944   1.322       .  A
C2944      C2945   1.393       .  A
C2945      H2951   1.082       .  S
O2946      C2947   1.334       .  A
C2947      C2948   1.379       .  A
C2948      H2952   1.078       .  S
C2953      C2958   1.379       .  A
C2953      C2954   1.410       .  A
C2953      O2959   1.323       .  A
C2954      C2955   1.409       .  A
C2954      H2965   1.082       .  S
C2955      C2964   1.372       .  A
C2955      C2956   1.379       .  A
C2956      C2957   1.410       .  A
C2956      O2962   1.323       .  A
C2957      C2958   1.408       .  A
C2957      H2966   1.082       .  S
C2958      C2961   1.371       .  A
O2959      C2960   1.335       .  A
C2960      C2961   1.395       .  A
C2961      H2967   1.082       .  S
O2962      C2963   1.334       .  A
C2963      C2964   1.394       .  A
C2964      H2968   1.082       .  S
C2969      C2974   1.380       .  A
C2969      C2970   1.412       .  A
C2969      O2975   1.332       .  A
C2970      C2971   1.414       .  A
C2970      H2981   1.084   1_455  S
C2971      C2980   1.366       .  A
C2971      C2972   1.381       .  A
C2972      C2973   1.401       .  A
C2972      O2978   1.324       .  A
C2973      C2974   1.404       .  A
C2973      H2982   1.088       .  S
C2974      C2977   1.355       .  A
O2975      C2976   1.337       .  A
C2976      C2977   1.393       .  A
C2977      H2983   1.087       .  S
O2978      C2979   1.330       .  A
C2979      C2980   1.395       .  A
C2980      H2984   1.090   1_456  S
C2985      C2990   1.379       .  A
C2985      C2986   1.411       .  A
C2985      O2991   1.331       .  A
C2986      C2987   1.412       .  A
C2986      H2997   1.082       .  S
C2987      C2996   1.367       .  A
C2987      C2988   1.379       .  A
C2988      C2989   1.411       .  A
C2988      O2994   1.330       .  A
C2989      C2990   1.413       .  A
C2989      H2998   1.082       .  S
C2990      C2993   1.368       .  A
O2991      C2992   1.336       .  A
C2992      C2993   1.398       .  A
C2993      H2999   1.083       .  S
O2994      C2995   1.336       .  A
C2995      C2996   1.395       .  A
C2996      H3000   1.082       .  S
C3001      C3006   1.379       .  A
C3001      C3002   1.411       .  A
C3001      O3007   1.324       .  A
C3002      C3003   1.409       .  A
C3002      H3013   1.082       .  S
C3003      C3012   1.371       .  A
C3003      C3004   1.379       .  A
C3004      C3005   1.409   1_554  A
C3004      O3010   1.322       .  A
C3005      C3006   1.408   1_556  A
C3005      H3014   1.082       .  S
C3006      C3009   1.370   1_554  A
O3007      C3008   1.335       .  A
C3008      C3009   1.395   1_554  A
C3009      H3015   1.082       .  S
O3010      C3011   1.334       .  A
C3011      C3012   1.394       .  A
C3012      H3016   1.082       .  S
C3017      C3022   1.380       .  A
C3017      C3018   1.407       .  A
C3017      O3023   1.326       .  A
C3018      C3019   1.408       .  A
C3018      H3029   1.082       .  S
C3019      C3028   1.363       .  A
C3019      C3020   1.378       .  A
C3020      C3021   1.409       .  A
C3020      O3026   1.326       .  A
C3021      C3022   1.410       .  A
C3021      H3030   1.083       .  S
C3022      C3025   1.366       .  A
O3023      C3024   1.333       .  A
C3024      C3025   1.396       .  A
C3025      H3031   1.083       .  S
O3026      C3027   1.335       .  A
C3027      C3028   1.395       .  A
C3028      H3032   1.082   1_455  S
C3033      C3038   1.381       .  A
C3033      C3034   1.407       .  A
C3033      O3039   1.326       .  A
C3034      C3035   1.408       .  A
C3034      H3045   1.082       .  S
C3035      C3044   1.363       .  A
C3035      C3036   1.380       .  A
C3036      C3037   1.406       .  A
C3036      O3042   1.326       .  A
C3037      C3038   1.408       .  A
C3037      H3046   1.093   1_455  S
C3038      C3041   1.361       .  A
O3039      C3040   1.334       .  A
C3040      C3041   1.390       .  A
C3041      H3047   1.106   1_454  S
O3042      C3043   1.334       .  A
C3043      C3044   1.394       .  A
C3044      H3048   1.084       .  S
C3049      C3054   1.379       .  A
C3049      C3050   1.410       .  A
C3049      O3055   1.329       .  A
C3050      C3051   1.411       .  A
C3050      H3061   1.082       .  S
C3051      C3060   1.367       .  A
C3051      C3052   1.379       .  A
C3052      C3053   1.411   1_556  A
C3052      O3058   1.330       .  A
C3053      C3054   1.412   1_554  A
C3053      H3062   1.083       .  S
C3054      C3057   1.369   1_556  A
O3055      C3056   1.336       .  A
C3056      C3057   1.396   1_556  A
C3057      H3063   1.083   1_565  S
O3058      C3059   1.336       .  A
C3059      C3060   1.396       .  A
C3060      H3064   1.082       .  S
C3065      C3070   1.378       .  A
C3065      C3066   1.410       .  A
C3065      O3071   1.324       .  A
C3066      C3067   1.409       .  A
C3066      H3077   1.082       .  S
C3067      C3076   1.372       .  A
C3067      C3068   1.378       .  A
C3068      C3069   1.414       .  A
C3068      O3074   1.327       .  A
C3069      C3070   1.412       .  A
C3069      H3078   1.082       .  S
C3070      C3073   1.374       .  A
O3071      C3072   1.335       .  A
C3072      C3073   1.397       .  A
C3073      H3079   1.082       .  S
O3074      C3075   1.338       .  A
C3075      C3076   1.395       .  A
C3076      H3080   1.082       .  S
C3081      C3086   1.379       .  A
C3081      C3082   1.411       .  A
C3081      O3087   1.328       .  A
C3082      C3083   1.411       .  A
C3082      H3093   1.082   1_655  S
C3083      C3092   1.369       .  A
C3083      C3084   1.379       .  A
C3084      C3085   1.410       .  A
C3084      O3090   1.328       .  A
C3085      C3086   1.411       .  A
C3085      H3094   1.082       .  S
C3086      C3089   1.370       .  A
O3087      C3088   1.336       .  A
C3088      C3089   1.396       .  A
C3089      H3095   1.082       .  S
O3090      C3091   1.335       .  A
C3091      C3092   1.396       .  A
C3092      H3096   1.083   1_656  S
