geometry optimzed in LAMMPS
_audit_creation_date              2020-11-30 
_audit_creation_method            'lammps2cif' 
_symmetry_space_group_name_H-M    'P1' 
_symmetry_Int_Tables_number       1 
_symmetry_cell_setting            triclinic 
loop_ 
_symmetry_equiv_pos_as_xyz 
  x,y,z 
_cell_length_a                    51.55637275 
_cell_length_b                    44.22942289118473 
_cell_length_c                    34.635218094194 
_cell_angle_alpha                 89.98782802428684 
_cell_angle_beta                  89.5021786487796 
_cell_angle_gamma                 90.03307886865038 
loop_ 
_atom_site_label 
_atom_site_type_symbol 
_atom_site_fract_x 
_atom_site_fract_y 
_atom_site_fract_z 
_atom_site_charge 
C1          C  0.70487947  0.24748860  0.46245520     0.30600
C2          C  0.70200766  0.24851683  0.04127224     0.30600
C3          C  0.72001512  0.27357567  0.48112430    -0.05600
C4          C  0.67847395  0.24864461  0.48428463    -0.06400
C5          C  0.71733611  0.21941525  0.48099407    -0.06200
C6          C  0.71392881  0.27696298  0.02231306    -0.05600
C7          C  0.67559164  0.24674055  0.02051883    -0.06400
C8          C  0.71742360  0.22297075  0.02176657    -0.06200
C9          C  0.72599076  0.30313302  0.03423782    -0.31600
N10         N  0.73497447  0.31824225  0.00264533     0.14900
C11         C  0.73239386  0.29944260  0.46859848    -0.31600
H12         H  0.73477154  0.30664542  0.43891243     0.16800
C13         C  0.64969634  0.24474268  0.03068750    -0.30600
N14         N  0.63862650  0.25232251  0.50931235     0.13600
C15         C  0.65227259  0.24942456  0.47574233    -0.30600
C16         C  0.73026356  0.19740928  0.03377521    -0.30900
N17         N  0.73839651  0.18191951  0.00198619     0.14100
H18         H  0.73272215  0.19018784  0.06336938     0.16700
C19         C  0.72839560  0.19274957  0.46868321    -0.30900
H20         H  0.73043135  0.18535099  0.43909658     0.16700
H21         H  0.64359592  0.24845428  0.44747099     0.16700
H22         H  0.72892284  0.31023316  0.06372695     0.16800
H23         H  0.64150419  0.24537281  0.05949049     0.16700
C24         C  0.70105397  0.24678423  0.21241866     0.30600
C25         C  0.70343033  0.24584045  0.29185483     0.30600
C26         C  0.71268794  0.27503468  0.23181011    -0.05600
C27         C  0.67471485  0.24409604  0.23407763    -0.06400
C28         C  0.71686842  0.22101172  0.23039454    -0.06200
C29         C  0.71405581  0.27426365  0.27193961    -0.05600
C30         C  0.67623132  0.24276215  0.27436954    -0.06400
C31         C  0.71792368  0.22023756  0.27062903    -0.06200
C32         C  0.72633830  0.30025227  0.28364235    -0.31600
N33         N  0.73223848  0.31704966  0.25187806     0.14900
C34         C  0.72355993  0.30209866  0.22022314    -0.31600
H35         H  0.72582996  0.30999720  0.19084739     0.16800
C36         C  0.65151746  0.23840347  0.28852562    -0.30600
N37         N  0.63487052  0.23909852  0.25863788     0.13600
C38         C  0.64858489  0.24284744  0.22527845    -0.30600
C39         C  0.72999411  0.19354570  0.28036372    -0.30900
N40         N  0.73701766  0.17879919  0.24746013     0.14100
H41         H  0.73300763  0.18503021  0.30922599     0.16700
C42         C  0.72896324  0.19537312  0.21677892    -0.30900
H43         H  0.73080194  0.18869679  0.18682000     0.16700
H44         H  0.63999210  0.24444211  0.19699259     0.16700
H45         H  0.73097193  0.30623120  0.31308471     0.16800
H46         H  0.64581727  0.23525578  0.31839736     0.16700
C47         C  0.82900877  0.49434256  0.46094856     0.30600
C48         C  0.82896425  0.49511658  0.04012309     0.30600
C49         C  0.81697126  0.46681773  0.48131055    -0.05600
C50         C  0.85622275  0.49475998  0.47901343    -0.06400
C51         C  0.81349001  0.02522209  0.47420673    -0.06200
C52         C  0.81575635  0.46778072  0.02134319    -0.05600
C53         C  0.85558220  0.49595742  0.01920464    -0.06400
C54         C  0.81525022  0.02929779  0.01507268    -0.06200
C55         C  0.80375966  0.44188651  0.03426992    -0.31600
N56         N  0.79632313  0.42545067  0.00311919     0.14900
C57         C  0.80568886  0.44009078  0.47032350    -0.31600
H58         H  0.80255682  0.43249156  0.44108374     0.16800
C59         C  0.88013660  0.99984476  0.01960609    -0.30600
N60         N  0.89366519  0.99743918  0.98591544     0.13600
C61         C  0.87719637  0.99415215  0.45583942    -0.30600
C62         C  0.80445245  0.05599635  0.02782268    -0.30900
N63         N  0.79610775  0.07198135  0.99677384     0.14100
H64         H  0.80227448  0.06296869  0.05757286     0.16700
C65         C  0.80140926  0.05132017  0.46279456    -0.30900
H66         H  0.79734659  0.05773178  0.43331966     0.16700
H67         H  0.88272366  0.99170383  0.42578939     0.16700
H68         H  0.80081993  0.43544035  0.06413148     0.16800
H69         H  0.88894838  0.00136440  0.04774413     0.16700
C70         C  0.82749993  0.99940520  0.20393149     0.30600
C71         C  0.82529553  0.99872921  0.28340943     0.30600
C72         C  0.81323651  0.46673655  0.23011956    -0.05600
C73         C  0.85558196  0.48975084  0.23151296    -0.06400
C74         C  0.81467184  0.02700844  0.22343731    -0.06200
C75         C  0.81251463  0.46664876  0.27044002    -0.05600
C76         C  0.85434090  0.48908643  0.27189519    -0.06400
C77         C  0.81347371  0.02636040  0.26361343    -0.06200
C78         C  0.79990491  0.44052479  0.28146583    -0.31600
N79         N  0.79203287  0.42561454  0.24935682     0.14900
C80         C  0.80015193  0.44139171  0.21779653    -0.31600
H81         H  0.79746967  0.43444854  0.18813300     0.16800
C82         C  0.87763527  0.99461785  0.27846953    -0.30600
N83         N  0.89403773  0.99587991  0.24780242     0.13600
C84         C  0.87992035  0.99854236  0.21504395    -0.30600
C85         C  0.80064237  0.05190229  0.27561354    -0.30900
N86         N  0.79406437  0.06831515  0.24399290     0.14100
H87         H  0.79640786  0.05799068  0.30525703     0.16700
C88         C  0.80291302  0.05352373  0.21207074    -0.30900
H89         H  0.80043712  0.06124288  0.18272288     0.16700
H90         H  0.88821013  0.00049026  0.18638928     0.16700
H91         H  0.79694298  0.43247386  0.31063155     0.16800
H92         H  0.88364292  0.99231084  0.30818451     0.16700
O93         O  0.47667707  0.21604288  0.99069932    -0.72300
O94         O  0.55376744  0.22222933  0.00360733    -0.73300
O95         O  0.51199418  0.20177311  0.05097345    -0.61900
O96         O  0.51188373  0.24486972  0.44174450    -0.70300
O97         O  0.51705160  0.29083473  0.46661396    -0.69900
O98         O  0.50696515  0.24866071  0.07306236    -0.61100
O99         O  0.54906712  0.26850058  0.02767944    -0.73700
O100        O  0.47227341  0.26282304  0.01314545    -0.72400
Cu101      Cu  0.51537478  0.21730460  0.99679916     1.04600
Cu102      Cu  0.51051339  0.26732939  0.02120778     1.04300
C103        C  0.46239347  0.23868072  0.99927962     0.93900
C104        C  0.56352135  0.24647547  0.01737828     0.93000
C105        C  0.50857912  0.22025767  0.07877277     0.85200
C106        C  0.51438535  0.27337159  0.43765882     0.91400
O107        O  0.55247517  0.22796318  0.26491330    -0.72300
O108        O  0.47511050  0.22215254  0.27771608    -0.73300
O109        O  0.51136488  0.20549006  0.21931052    -0.61900
O110        O  0.51614865  0.24430186  0.32283097    -0.70300
O111        O  0.51181599  0.29021069  0.29743817    -0.69900
O112        O  0.50729118  0.25140841  0.19381944    -0.61100
O113        O  0.47095465  0.26755007  0.25101571    -0.73700
O114        O  0.54828697  0.27352704  0.23874276    -0.72400
Cu115      Cu  0.51395463  0.22340034  0.27222286     1.04600
Cu116      Cu  0.50945883  0.27230126  0.24437142     1.04300
C117        C  0.56253880  0.25151414  0.24944301     0.93900
C118        C  0.46085216  0.24378668  0.26584207     0.93000
C119        C  0.50858917  0.22276714  0.19019846     0.85200
C120        C  0.51447001  0.27290994  0.32656526     0.91400
O121        O  0.02003106  0.01271672  0.04695501    -0.72300
O122        O  0.01804564  0.05163747  0.43971772    -0.73300
O123        O  0.97980691  0.03695161  0.49672427    -0.61900
O124        O  0.05748690  0.02625849  0.99049598    -0.70300
O125        O  0.05590123  0.47744039  0.98370352    -0.69900
O126        O  0.97842427  0.48092468  0.99784295    -0.61100
O127        O  0.01446237  0.49193215  0.44035331    -0.73700
O128        O  0.02050520  0.45981091  0.04299968    -0.72400
Cu129      Cu  0.01884624  0.03502081  0.49342640     1.04600
Cu130      Cu  0.01701058  0.47737076  0.99004295     1.04300
C131        C  0.01814546  0.98422318  0.05163474     0.93900
C132        C  0.01514101  0.03388541  0.41113515     0.93000
C133        C  0.96566348  0.01265176  0.99078126     0.85200
C134        C  0.06708799  0.00182092  0.97682017     0.91400
O135        O  0.05522542  0.47289439  0.27168613    -0.72300
O136        O  0.97807765  0.47648358  0.25674466    -0.73300
O137        O  0.02073965  0.45711595  0.21111187    -0.61900
O138        O  0.01242440  0.49160089  0.31658432    -0.70300
O139        O  0.01549085  0.05280480  0.27070648    -0.69900
O140        O  0.01764469  0.01497163  0.16601801    -0.61100
O141        O  0.97783510  0.03340224  0.21645166    -0.73700
O142        O  0.05533143  0.03459913  0.21833385    -0.72400
Cu143      Cu  0.01647320  0.47288918  0.26489316     1.04600
Cu144      Cu  0.01656227  0.03559698  0.21698240     1.04300
C145        C  0.06756270  0.01178274  0.23139671     0.93900
C146        C  0.96538808  0.01040789  0.22891651     0.93000
C147        C  0.01788799  0.98626196  0.16244267     0.85200
C148        C  0.01516361  0.03498063  0.29967126     0.91400
C149        C  0.32457134  0.24883171  0.45871885     0.30600
C150        C  0.32135697  0.24945811  0.03868333     0.30600
C151        C  0.31021904  0.22279018  0.47959385    -0.05600
C152        C  0.35138752  0.24797968  0.47717613    -0.06400
C153        C  0.31191289  0.27671370  0.47801151    -0.06200
C154        C  0.30875708  0.22204287  0.01889995    -0.05600
C155        C  0.34864667  0.24966450  0.02148594    -0.06400
C156        C  0.30832493  0.27572325  0.01722189    -0.06200
C157        C  0.29393879  0.19780126  0.03064974    -0.31600
N158        N  0.28715814  0.18140407  0.99922734     0.14900
C159        C  0.29537538  0.19810019  0.46938901    -0.31600
H160        H  0.29055350  0.19116142  0.44042663     0.16800
C161        C  0.37314493  0.25233103  0.03613323    -0.30600
N162        N  0.39019657  0.25208615  0.00626393     0.13600
C163        C  0.37652533  0.24566541  0.46402473    -0.30600
C164        C  0.29430653  0.30094385  0.02728809    -0.30900
N165        N  0.28823493  0.31642893  0.99480275     0.14100
H166        H  0.28865231  0.30764481  0.05616304     0.16700
C167        C  0.29862416  0.30212697  0.46607458    -0.30900
H168        H  0.29467690  0.30851038  0.43659058     0.16700
H169        H  0.38281745  0.24382573  0.43420826     0.16700
H170        H  0.28788738  0.19278282  0.05992210     0.16800
H171        H  0.37825864  0.25448185  0.06626595     0.16700
C172        C  0.32099924  0.24964871  0.20929401     0.30600
C173        C  0.32236493  0.24821044  0.28862556     0.30600
C174        C  0.30724653  0.22254388  0.22880342    -0.05600
C175        C  0.34793720  0.24907861  0.22755436    -0.06400
C176        C  0.30782862  0.27640193  0.23026556    -0.06200
C177        C  0.30784473  0.22180980  0.26911123    -0.05600
C178        C  0.34863295  0.24810020  0.26764477    -0.06400
C179        C  0.30853089  0.27570560  0.27056555    -0.06200
C180        C  0.29326607  0.19712652  0.28059162    -0.31600
N181        N  0.28464952  0.18244068  0.24872198     0.14900
C182        C  0.29254929  0.19820344  0.21708358    -0.31600
H183        H  0.28750673  0.19253077  0.18772801     0.16800
C184        C  0.37429742  0.24899691  0.27820866    -0.30600
N185        N  0.38905410  0.25088824  0.24558711     0.13600
C186        C  0.37316568  0.25123193  0.21455656    -0.30600
C187        C  0.29523872  0.30085944  0.28365256    -0.30900
N188        N  0.28704286  0.31696973  0.25269713     0.14100
H189        H  0.29206807  0.30734767  0.31341325     0.16700
C190        C  0.29403620  0.30182609  0.22013238    -0.30900
H191        H  0.28900270  0.30880165  0.19124644     0.16700
H192        H  0.37951802  0.25340169  0.18480604     0.16700
H193        H  0.28921909  0.19012384  0.30991139     0.16800
H194        H  0.38161676  0.24952478  0.30739492     0.16700
C195        C  0.21003741  0.50238371  0.04208992     0.30600
C196        C  0.20899073  0.50428421  0.46294709     0.30600
C197        C  0.22082289  0.47413915  0.02114464    -0.05600
C198        C  0.18302661  0.50588153  0.02446478    -0.06400
C199        C  0.21872802  0.02266123  0.02205628    -0.06200
C200        C  0.22350945  0.47757920  0.48103357    -0.05600
C201        C  0.18271781  0.50361657  0.48470757    -0.06400
C202        C  0.21993002  0.02471522  0.48201376    -0.06200
C203        C  0.23570416  0.45188125  0.46761959    -0.31600
N204        N  0.23952262  0.43233038  0.99775739     0.14900
C205        C  0.23380593  0.44793802  0.03065103    -0.31600
H206        H  0.23910197  0.44088803  0.05937761     0.16800
C207        C  0.15673430  0.50629637  0.47588042    -0.30600
N208        N  0.14188663  0.51158216  0.00838332     0.13600
C209        C  0.15824575  0.50961009  0.03866455    -0.30600
C210        C  0.23095764  0.05180113  0.47078735    -0.30900
N211        N  0.23666886  0.06597425  0.00191730     0.14100
H212        H  0.23281598  0.06007238  0.44153795     0.16700
C213        C  0.23052485  0.04916608  0.03366802    -0.30900
H214        H  0.23385515  0.05605478  0.06312889     0.16700
H215        H  0.15245169  0.51039974  0.06875935     0.16700
H216        H  0.23765746  0.44528144  0.43766238     0.16800
H217        H  0.14843150  0.50924615  0.44756888     0.16700
C218        C  0.20770617  0.50402606  0.29229198     0.30600
C219        C  0.20958798  0.50349927  0.21283856     0.30600
C220        C  0.22104221  0.47661998  0.27359055    -0.05600
C221        C  0.18125721  0.50460942  0.27160818    -0.06400
C222        C  0.21769668  0.02361221  0.27138084    -0.06200
C223        C  0.22226380  0.47639761  0.23339706    -0.05600
C224        C  0.18249891  0.50443195  0.23130398    -0.06400
C225        C  0.21791253  0.02303318  0.23105907    -0.06200
C226        C  0.23514425  0.45034898  0.22293725    -0.31600
N227        N  0.24087667  0.43431989  0.25526266     0.14900
C228        C  0.23239317  0.45030979  0.28644139    -0.31600
H229        H  0.23435435  0.44342720  0.31625519     0.16800
C230        C  0.15763615  0.50691111  0.21775797    -0.30600
N231        N  0.14122747  0.50804771  0.24844067     0.13600
C232        C  0.15527756  0.50708560  0.28143211    -0.30600
C233        C  0.22987724  0.04930034  0.21885140    -0.30900
N234        N  0.23589169  0.06630427  0.25022925     0.14100
H235        H  0.23359569  0.05586873  0.18926941     0.16700
C236        C  0.22832871  0.05086708  0.28234210    -0.30900
H237        H  0.23033494  0.05901102  0.31157049     0.16700
H238        H  0.14707865  0.50933238  0.31012805     0.16700
H239        H  0.23977972  0.44324654  0.19385268     0.16800
H240        H  0.15186097  0.50798550  0.18781470     0.16700
C241        C  0.18854279  0.48905620  0.39842073    -0.12700
C242        C  0.20867799  0.50334769  0.41872348     0.09400
C243        C  0.22802897  0.00769732  0.39640866    -0.12700
C244        C  0.22787410  0.00698493  0.35597909    -0.12700
C245        C  0.20803781  0.50324018  0.33651368     0.09400
C246        C  0.18818286  0.48909729  0.35797522    -0.12700
H247        H  0.17341156  0.47687812  0.41352853     0.13400
H248        H  0.24493821  0.01669670  0.41058184     0.13400
H249        H  0.24464682  0.01553868  0.34056253     0.13400
H250        H  0.17272779  0.47714220  0.34370566     0.13400
C251        C  0.19885569  0.02184759  0.10660123    -0.12700
C252        C  0.20953075  0.50250286  0.08633046     0.09400
C253        C  0.20657441  0.47558871  0.10758909    -0.12700
C254        C  0.20624297  0.47594306  0.14801344    -0.12700
C255        C  0.20908389  0.50317817  0.16856019     0.09400
C256        C  0.19878805  0.02181382  0.14707807    -0.12700
H257        H  0.19514411  0.04288992  0.09178496     0.13400
H258        H  0.20347309  0.45425589  0.09322291     0.13400
H259        H  0.20291963  0.45486728  0.16300502     0.13400
H260        H  0.19492749  0.04283010  0.16194490     0.13400
C261        C  0.25525863  0.14501349  0.27940936    -0.12700
C262        C  0.27137017  0.15372036  0.24842201     0.09400
C263        C  0.27537815  0.13327307  0.21787848    -0.12700
C264        C  0.26378761  0.10470896  0.21846718    -0.12700
C265        C  0.24777374  0.09588390  0.24954630     0.09400
C266        C  0.24356150  0.11647656  0.27993181    -0.12700
H267        H  0.25154164  0.16034880  0.30315347     0.13400
H268        H  0.28810726  0.13901630  0.19397539     0.13400
H269        H  0.26785816  0.08932113  0.19491955     0.13400
H270        H  0.23098065  0.11073368  0.30398436     0.13400
C271        C  0.25869418  0.35504305  0.28438220    -0.12700
C272        C  0.27520864  0.34646800  0.25378603     0.09400
C273        C  0.28074960  0.36753594  0.22452738    -0.12700
C274        C  0.26988646  0.39637775  0.22550320    -0.12700
C275        C  0.25303289  0.40494069  0.25565802     0.09400
C276        C  0.24764442  0.38398616  0.28525940    -0.12700
H277        H  0.25400546  0.33921580  0.30723764     0.13400
H278        H  0.29392941  0.36189202  0.20113451     0.13400
H279        H  0.27494080  0.41209889  0.20272346     0.11000
H280        H  0.23448945  0.38972373  0.30863558     0.13400
C281        C  0.27569937  0.13364428  0.03253405    -0.12700
C282        C  0.27357937  0.15282131  0.00027822     0.09400
C283        C  0.25861125  0.14318567  0.96891993    -0.12700
C284        C  0.24624820  0.11500599  0.96967429    -0.12700
C285        C  0.24870476  0.09556210  0.00169415     0.09400
C286        C  0.26348856  0.10542068  0.03321319    -0.12700
H287        H  0.28743910  0.14005798  0.05694536     0.13400
H288        H  0.25624279  0.15753759  0.94389979     0.13400
H289        H  0.23460401  0.10867883  0.94516486     0.13400
H290        H  0.26622907  0.09108182  0.05813067     0.13400
C291        C  0.28110703  0.36626912  0.02470203    -0.12700
C292        C  0.27648875  0.34597886  0.99431555     0.09400
C293        C  0.26043088  0.35510186  0.96390931    -0.12700
C294        C  0.24854498  0.38359272  0.96467810    -0.12700
C295        C  0.25265587  0.40355465  0.99574637     0.09400
C296        C  0.26941118  0.39464867  0.02538431    -0.12700
H297        H  0.29402991  0.36028531  0.04793854     0.13400
H298        H  0.25654856  0.33993779  0.94012518     0.13400
H299        H  0.23563390  0.38963747  0.94146744     0.13400
H300        H  0.27684994  0.41195546  0.55193847     0.13400
C301        C  0.32630752  0.22093946  0.39391319    -0.12700
C302        C  0.32560993  0.24832915  0.41454534     0.09400
C303        C  0.32983024  0.27508022  0.39339449    -0.12700
C304        C  0.32935889  0.27490842  0.35301890    -0.12700
C305        C  0.32466891  0.24797863  0.33261263     0.09400
C306        C  0.32581009  0.22076461  0.35352972    -0.12700
H307        H  0.32792398  0.19956346  0.40874930     0.13400
H308        H  0.33374972  0.29619067  0.40794094     0.13400
H309        H  0.33282537  0.29590938  0.33784114     0.13400
H310        H  0.32704043  0.19926710  0.33888076     0.13400
C311        C  0.32440911  0.22284824  0.10385640    -0.12700
C312        C  0.32131185  0.24986708  0.08291744     0.09400
C313        C  0.32327570  0.27713194  0.10366747    -0.12700
C314        C  0.32349270  0.27718985  0.14411500    -0.12700
C315        C  0.32173384  0.24998755  0.16508032     0.09400
C316        C  0.32459368  0.22290517  0.14420982    -0.12700
H317        H  0.32736867  0.20156604  0.08914968     0.13400
H318        H  0.32556586  0.29845352  0.08882241     0.13400
H319        H  0.32589912  0.29855197  0.15873761     0.13400
H320        H  0.32750946  0.20165977  0.15897457     0.13400
C321        C  0.11361317  0.51111780  0.24557790    -0.15800
C322        C  0.09606122  0.01207738  0.23042339    -0.31000
H323        H  0.10585754  0.52533535  0.22283740     0.13200
H324        H  0.10584361  0.02710589  0.21019494     0.13800
C325        C  0.11424529  0.51471570  0.01178215    -0.15800
C326        C  0.09532796  0.99765915  0.97489895    -0.31000
H327        H  0.10638721  0.52869293  0.03487586     0.13200
H328        H  0.10398324  0.98741226  0.45073878     0.13800
C329        C  0.01472231  0.04539524  0.37274244    -0.12700
C330        C  0.01471116  0.04618274  0.33815354    -0.14200
C331        C  0.01848806  0.97412186  0.12453967    -0.12700
C332        C  0.01857698  0.97319111  0.09005119    -0.14200
C333        C  0.43245712  0.24101297  0.26906660    -0.15800
C334        C  0.41672397  0.25443784  0.24357428    -0.31000
H335        H  0.42437970  0.22618653  0.29109255     0.13200
H336        H  0.42503780  0.26689774  0.21939573     0.13800
C337        C  0.41763311  0.25541063  0.01066000    -0.15800
C338        C  0.43427638  0.23682932  0.99264945    -0.31000
H339        H  0.42815387  0.22842643  0.46982838     0.13200
H340        H  0.42691612  0.21906920  0.97404679     0.13800
C341        C  0.51467387  0.28498421  0.39933212    -0.12700
C342        C  0.51490949  0.28483603  0.36472638    -0.14200
C343        C  0.50731140  0.20990655  0.11762768    -0.12700
C344        C  0.50739862  0.21069702  0.15219885    -0.14200
C345        C  0.93694982  0.01053180  0.22634931    -0.15800
C346        C  0.92179580  0.99436365  0.25026440    -0.31000
H347        H  0.92813458  0.02561529  0.20548322     0.13200
H348        H  0.93106240  0.46930370  0.27978760     0.13800
C349        C  0.84130552  0.01758379  0.38875606    -0.12700
C350        C  0.82737918  0.49569157  0.41674934     0.09400
C351        C  0.80569599  0.48431051  0.39698389    -0.12700
C352        C  0.80522435  0.48370225  0.35650850    -0.12700
C353        C  0.82375295  0.00002059  0.32757465     0.09400
C354        C  0.84150487  0.01766808  0.34837422    -0.12700
H355        H  0.85527063  0.03152431  0.40362802     0.13400
H356        H  0.78889524  0.47614013  0.41267681     0.13400
H357        H  0.78801999  0.47525923  0.34261953     0.13400
H358        H  0.85568331  0.03152437  0.33344059     0.13400
C359        C  0.84773794  0.47694352  0.10434631    -0.12700
C360        C  0.82880618  0.49354849  0.08434367     0.09400
C361        C  0.80565052  0.00908982  0.09871974    -0.12700
C362        C  0.80558380  0.00863595  0.13913155    -0.12700
C363        C  0.82738211  0.99855899  0.15964955     0.09400
C364        C  0.84778993  0.47596304  0.14481571    -0.12700
H365        H  0.86226744  0.46408581  0.08883406     0.13400
H366        H  0.78839254  0.01678061  0.08416512     0.13400
H367        H  0.78824971  0.01590931  0.15425503     0.13400
H368        H  0.86234211  0.46239427  0.15880556     0.13400
C369        C  0.92116573  0.99476174  0.98122270    -0.15800
C370        C  0.93743334  0.01468670  0.99722475    -0.31000
H371        H  0.93325664  0.47781821  0.46964670     0.13200
H372        H  0.92974886  0.03311734  0.01461259     0.13800
C373        C  0.76785075  0.14415925  0.21504885    -0.12700
C374        C  0.75059568  0.15037929  0.24564776     0.09400
C375        C  0.74741703  0.12882075  0.27509648    -0.12700
C376        C  0.76153129  0.10191273  0.27438109    -0.12700
C377        C  0.77923234  0.09592899  0.24425306     0.09400
C378        C  0.78205703  0.11724590  0.21438392    -0.12700
H379        H  0.77089337  0.16048724  0.19217656     0.13400
H380        H  0.73385864  0.13265315  0.29860573     0.13400
H381        H  0.75836630  0.08565985  0.29728696     0.13400
H382        H  0.79567293  0.11347002  0.19093956     0.13400
C383        C  0.76652604  0.34958849  0.27891773    -0.12700
C384        C  0.74714531  0.34462033  0.25135612     0.09400
C385        C  0.74316426  0.36652828  0.22258280    -0.12700
C386        C  0.75818026  0.39287626  0.22151631    -0.12700
C387        C  0.77739614  0.39789071  0.24927993     0.09400
C388        C  0.78146255  0.37593177  0.27790514    -0.12700
H389        H  0.77046023  0.33284946  0.30088724     0.13400
H390        H  0.72820905  0.36345576  0.20120581     0.13400
H391        H  0.75441716  0.40965764  0.19951406     0.13400
H392        H  0.79641147  0.37901254  0.29929722     0.13400
C393        C  0.60731048  0.23580121  0.26284691    -0.15800
C394        C  0.59082740  0.25343039  0.24334263    -0.31000
H395        H  0.59990406  0.22051845  0.28492277     0.13200
H396        H  0.59838958  0.27053693  0.22374267     0.13800
C397        C  0.76895230  0.14227824  0.52858969    -0.12700
C398        C  0.75256124  0.15388949  0.00140996     0.09400
C399        C  0.75074976  0.13438268  0.96952906    -0.12700
C400        C  0.76518553  0.10783551  0.96791668    -0.12700
C401        C  0.78179158  0.09994557  0.99820917     0.09400
C402        C  0.78359017  0.11580317  0.52700612    -0.12700
H403        H  0.77146587  0.15722693  0.55297567     0.13400
H404        H  0.73784335  0.13930573  0.94590964     0.13400
H405        H  0.76281820  0.09320102  0.94319612     0.13400
H406        H  0.79680337  0.11113152  0.55033110     0.13400
C407        C  0.76898432  0.35055667  0.97355852    -0.12700
C408        C  0.75080063  0.34506798  0.00320697     0.09400
C409        C  0.74860187  0.36594709  0.03363637    -0.12700
C410        C  0.76391581  0.39199282  0.03403220    -0.12700
C411        C  0.78173195  0.39772334  0.00399648     0.09400
C412        C  0.78424890  0.37659822  0.97393023    -0.12700
H413        H  0.77165500  0.33456110  0.95024071     0.13400
H414        H  0.73463421  0.36251036  0.05671482     0.13400
H415        H  0.76127242  0.40806907  0.05727646     0.13400
H416        H  0.79814309  0.38011331  0.95076621     0.13400
C417        C  0.68579536  0.26398801  0.39756663    -0.12700
C418        C  0.70505904  0.24856755  0.41820266     0.09400
C419        C  0.72645168  0.23750110  0.39690713    -0.12700
C420        C  0.72609266  0.23655361  0.35649704    -0.12700
C421        C  0.70457777  0.24735755  0.33603372     0.09400
C422        C  0.68568631  0.26359499  0.35713176    -0.12700
H423        H  0.67115608  0.27711037  0.41240346     0.13400
H424        H  0.74371349  0.22979471  0.41139387     0.13400
H425        H  0.74305087  0.22816178  0.34146234     0.13400
H426        H  0.67077743  0.27620699  0.34239881     0.13400
C427        C  0.68307446  0.23037959  0.10639560    -0.12700
C428        C  0.70207864  0.24674780  0.08565534     0.09400
C429        C  0.72327716  0.25768813  0.10683719    -0.12700
C430        C  0.72295781  0.25736117  0.14729306    -0.12700
C431        C  0.70139363  0.24616995  0.16807129     0.09400
C432        C  0.68261457  0.23028431  0.14690955    -0.12700
H433        H  0.66901664  0.21665242  0.09158425     0.13400
H434        H  0.74045338  0.26601478  0.09223952     0.13400
H435        H  0.73989253  0.26551723  0.16225137     0.13400
H436        H  0.66807805  0.21675759  0.16140531     0.13400
C437        C  0.59173196  0.24949523  0.02124437    -0.15800
C438        C  0.60810234  0.23658421  0.99589820    -0.31000
H439        H  0.59912639  0.26455926  0.04332086     0.13200
H440        H  0.60406253  0.27147800  0.53605111     0.13800
C441        C  0.70383117  0.24925365  0.96157526     0.30600
C442        C  0.70740919  0.24702362  0.54172293     0.30600
C443        C  0.71494900  0.27701246  0.98202296    -0.05600
C444        C  0.67669982  0.24627883  0.98011926    -0.06400
C445        C  0.71815336  0.22317113  0.98150152    -0.06200
C446        C  0.72103902  0.27349701  0.52132812    -0.05600
C447        C  0.68008355  0.24929832  0.52458088    -0.06400
C448        C  0.71875199  0.21949095  0.52106126    -0.06200
C449        C  0.73317418  0.29973772  0.53224169    -0.31600
N450        N  0.74041366  0.31516711  0.50008123     0.14900
C451        C  0.72810181  0.30250707  0.97062458    -0.31600
H452        H  0.73274668  0.30875471  0.94116056     0.16800
C453        C  0.65537161  0.25285382  0.53905793    -0.30600
N454        N  0.63558940  0.24127051  0.99808289     0.13600
C455        C  0.65182486  0.24170912  0.96719549    -0.30600
C456        C  0.73111095  0.19347484  0.53211116    -0.30900
N457        N  0.73717874  0.17732460  0.49990167     0.14100
H458        H  0.73537458  0.18694340  0.56147780     0.16700
C459        C  0.73073755  0.19729578  0.97014097    -0.30900
H460        H  0.73378655  0.18981325  0.94079164     0.16700
H461        H  0.64580136  0.23872344  0.93759451     0.16700
H462        H  0.73637455  0.30739165  0.56143326     0.16800
H463        H  0.64975967  0.25574288  0.56900463     0.16700
C464        C  0.70715972  0.24848622  0.71114772     0.30600
C465        C  0.70493842  0.24883316  0.79053307     0.30600
C466        C  0.72171119  0.27425490  0.73110774    -0.05600
C467        C  0.68002005  0.25193797  0.72909152    -0.06400
C468        C  0.71764120  0.22048112  0.73134747    -0.06200
C469        C  0.72081102  0.27430771  0.77134440    -0.05600
C470        C  0.67852618  0.25122686  0.76944072    -0.06400
C471        C  0.71662782  0.22020411  0.77150564    -0.06200
C472        C  0.73348772  0.30000371  0.78342954    -0.31600
N473        N  0.74155017  0.31565075  0.75168550     0.14900
C474        C  0.73402261  0.30035311  0.71977695    -0.31600
H475        H  0.73690236  0.30813791  0.69048649     0.16800
C476        C  0.65236693  0.25258093  0.77870549    -0.30600
N477        N  0.63871532  0.25596007  0.74557448     0.13600
C478        C  0.65535814  0.25608252  0.71528208    -0.30600
C479        C  0.72798668  0.19331082  0.78280498    -0.30900
N480        N  0.73616863  0.17807417  0.75071106     0.14100
H481        H  0.73081929  0.18577920  0.81215998     0.16700
C482        C  0.72961551  0.19454303  0.71923348    -0.30900
H483        H  0.73346023  0.18836082  0.68951313     0.16700
H484        H  0.64969885  0.25851759  0.68543093     0.16700
H485        H  0.73581301  0.30730139  0.81302061     0.16800
H486        H  0.64364806  0.25111157  0.80714162     0.16700
C487        C  0.82758467  0.49472270  0.96074188     0.30600
C488        C  0.83056356  0.49441180  0.54051661     0.30600
C489        C  0.81525475  0.46729590  0.98112020    -0.05600
C490        C  0.85475401  0.49499124  0.97889008    -0.06400
C491        C  0.81386858  0.02954427  0.97495684    -0.06200
C492        C  0.81751250  0.46699380  0.52157283    -0.05600
C493        C  0.85712221  0.49562650  0.51940410    -0.06400
C494        C  0.81507559  0.02572413  0.51429312    -0.06200
C495        C  0.80582463  0.44071925  0.53400792    -0.31600
N496        N  0.79859694  0.42453063  0.50247278     0.14900
C497        C  0.80368461  0.44051126  0.97063410    -0.31600
H498        H  0.80054896  0.43252864  0.94156688     0.16800
C499        C  0.88062156  0.99825640  0.51910710    -0.30600
N500        N  0.89407072  0.99600736  0.48529660     0.13600
C501        C  0.87688495  0.99651193  0.95627332    -0.30600
C502        C  0.80426273  0.05263181  0.52620663    -0.30900
N503        N  0.79560891  0.06789885  0.49475209     0.14100
H504        H  0.80247936  0.06036396  0.55569375     0.16700
C505        C  0.80206235  0.05600755  0.96431787    -0.30900
H506        H  0.79811608  0.06295891  0.93500951     0.16700
H507        H  0.88249567  0.99422679  0.92623968     0.16700
H508        H  0.80299715  0.43382075  0.56372944     0.16800
H509        H  0.88947073  0.00017130  0.54718436     0.16700
C510        C  0.82825868  0.99951305  0.70471135     0.30600
C511        C  0.82662859  0.99932798  0.78421835     0.30600
C512        C  0.81643661  0.46925287  0.73039133    -0.05600
C513        C  0.85695595  0.49615602  0.73269760    -0.06400
C514        C  0.81473708  0.02683044  0.72426874    -0.06200
C515        C  0.81528537  0.46915689  0.77061012    -0.05600
C516        C  0.85530548  0.49544577  0.77304980    -0.06400
C517        C  0.81394456  0.02626487  0.76444546    -0.06200
C518        C  0.80417531  0.44218009  0.78152758    -0.31600
N519        N  0.79761857  0.42656501  0.74935377     0.14900
C520        C  0.80513067  0.44285813  0.71788969    -0.31600
H521        H  0.80312713  0.43572303  0.68817720     0.16800
C522        C  0.87879570  0.99549727  0.77875140    -0.30600
N523        N  0.89504263  0.99625226  0.74791787     0.13600
C524        C  0.88081374  0.99905480  0.71526417    -0.30600
C525        C  0.80089839  0.05143148  0.77698503    -0.30900
N526        N  0.79367331  0.06776519  0.74573539     0.14100
H527        H  0.79718814  0.05745667  0.80679844     0.16700
C528        C  0.80234566  0.05318075  0.71343724    -0.30900
H529        H  0.79956607  0.06105963  0.68423139     0.16700
H530        H  0.88899677  0.00027203  0.68647612     0.16700
H531        H  0.80121537  0.43415358  0.81069190     0.16800
H532        H  0.88487019  0.99281521  0.80838825     0.16700
O533        O  0.47411568  0.23083011  0.49805176    -0.72300
O534        O  0.55117981  0.22129878  0.48841373    -0.73300
O535        O  0.51331385  0.20699291  0.54617051    -0.61900
O536        O  0.51844552  0.23591845  0.94498410    -0.70300
O537        O  0.51443848  0.28288561  0.96732807    -0.69900
O538        O  0.51875405  0.25287302  0.57112982    -0.61100
O539        O  0.55657175  0.26688215  0.51402010    -0.73700
O540        O  0.47914684  0.27630921  0.52411884    -0.72400
Cu541      Cu  0.51243831  0.22440734  0.49272889     1.04600
Cu542      Cu  0.51808986  0.27333417  0.51997305     1.04300
C543        C  0.46445331  0.25498879  0.51238532     0.93900
C544        C  0.56601991  0.24274577  0.49918437     0.93000
C545        C  0.51602996  0.22438636  0.57519174     0.85200
C546        C  0.51740374  0.26437444  0.93948217     0.91400
O547        O  0.55403307  0.21706032  0.76760829    -0.72300
O548        O  0.47694289  0.22035845  0.77214435    -0.73300
O549        O  0.51395214  0.20226437  0.71508348    -0.61900
O550        O  0.51716219  0.23550214  0.82217869    -0.70300
O551        O  0.51742825  0.28267786  0.79977099    -0.69900
O552        O  0.51550906  0.24956590  0.69333790    -0.61100
O553        O  0.47718533  0.26694422  0.74808966    -0.73700
O554        O  0.55551933  0.26422492  0.74558962    -0.72400
Cu555      Cu  0.51544526  0.21713655  0.76992921     1.04600
Cu556      Cu  0.51641552  0.26751066  0.74569301     1.04300
C557        C  0.56699276  0.24023298  0.75713240     0.93900
C558        C  0.46488189  0.24402969  0.76150516     0.93000
C559        C  0.51458690  0.22118752  0.68727918     0.85200
C560        C  0.51783616  0.26400370  0.82770266     0.91400
O561        O  0.01931360  0.01559283  0.54481050    -0.72300
O562        O  0.01768511  0.04904154  0.94182183    -0.73300
O563        O  0.98012722  0.03481792  0.00037029    -0.61900
O564        O  0.05759611  0.02921749  0.48938290    -0.70300
O565        O  0.05686440  0.47370136  0.48574688    -0.69900
O566        O  0.97963732  0.47822538  0.50062421    -0.61100
O567        O  0.01371644  0.49780205  0.93935223    -0.73700
O568        O  0.02195780  0.45949678  0.54702201    -0.72400
Cu569      Cu  0.01899848  0.03239357  0.99569611     1.04600
Cu570      Cu  0.01810971  0.47415381  0.49264976     1.04300
C571        C  0.01798337  0.98707907  0.54957270     0.93900
C572        C  0.01481193  0.03116308  0.91330401     0.93000
C573        C  0.96569899  0.01440727  0.48730184     0.85200
C574        C  0.06753981  0.00501083  0.47550626     0.91400
O575        O  0.05583108  0.47874554  0.77518213    -0.72300
O576        O  0.97896651  0.48335009  0.75931607    -0.73300
O577        O  0.02163438  0.46274449  0.71459050    -0.61900
O578        O  0.01306825  0.49884594  0.81918829    -0.70300
O579        O  0.01662464  0.05078712  0.77280748    -0.69900
O580        O  0.01845727  0.01618056  0.66619283    -0.61100
O581        O  0.97894049  0.03311521  0.71778001    -0.73700
O582        O  0.05624982  0.03414941  0.71913899    -0.72400
Cu583      Cu  0.01720960  0.47930724  0.76796593     1.04600
Cu584      Cu  0.01757418  0.03520326  0.71820445     1.04300
C585        C  0.06860744  0.01101935  0.73091651     0.93900
C586        C  0.96646895  0.00987025  0.72931421     0.93000
C587        C  0.01850805  0.98760510  0.66119672     0.85200
C588        C  0.01635647  0.03225878  0.80105339     0.91400
C589        C  0.32503949  0.24791825  0.95929126     0.30600
C590        C  0.32570767  0.25019465  0.53814244     0.30600
C591        C  0.31049969  0.22103330  0.97861768    -0.05600
C592        C  0.35075618  0.24859809  0.98143252    -0.06400
C593        C  0.31013476  0.27517161  0.97691400    -0.06200
C594        C  0.31090169  0.22341943  0.51988246    -0.05600
C595        C  0.35207590  0.24895622  0.51729987    -0.06400
C596        C  0.31237347  0.27737538  0.51833626    -0.06200
C597        C  0.29670100  0.19889456  0.53285189    -0.31600
N598        N  0.28777125  0.18324624  0.50192370     0.14900
C599        C  0.29659670  0.19576490  0.96726601    -0.31600
H600        H  0.29344947  0.18829453  0.93798613     0.16800
C601        C  0.37781398  0.24797227  0.52769042    -0.30600
N602        N  0.39245990  0.24600369  0.49493511     0.13600
C603        C  0.37690080  0.24980247  0.97261421    -0.30600
C604        C  0.29901790  0.30300083  0.52955752    -0.30900
N605        N  0.29139412  0.31841612  0.49763509     0.14100
H606        H  0.29450463  0.30974546  0.55882070     0.16700
C607        C  0.29717600  0.30056320  0.96380746    -0.30900
H608        H  0.29481114  0.30744843  0.93409944     0.16700
H609        H  0.38555318  0.25001678  0.94403280     0.16700
H610        H  0.29276431  0.19299272  0.56261956     0.16800
H611        H  0.38528994  0.24783939  0.55679325     0.16700
C612        C  0.32563692  0.24900604  0.70896014     0.30600
C613        C  0.32717456  0.24786951  0.78852023     0.30600
C614        C  0.31365583  0.22084487  0.72857970    -0.05600
C615        C  0.35245781  0.25093999  0.72716354    -0.06400
C616        C  0.31091639  0.27465841  0.72993439    -0.06200
C617        C  0.31430201  0.22026515  0.76891801    -0.05600
C618        C  0.35335128  0.25017954  0.76728858    -0.06400
C619        C  0.31168091  0.27414098  0.77031507    -0.06200
C620        C  0.29963618  0.19562459  0.78049937    -0.31600
N621        N  0.29092469  0.18079913  0.74875397     0.14900
C622        C  0.29886815  0.19649415  0.71704126    -0.31600
H623        H  0.29332872  0.19122039  0.68776836     0.16800
C624        C  0.37898080  0.25332464  0.77737252    -0.30600
N625        N  0.39338240  0.25621333  0.74445183     0.13600
C626        C  0.37735913  0.25506974  0.71370655    -0.30600
C627        C  0.29799461  0.29908833  0.78316132    -0.30900
N628        N  0.28950807  0.31486378  0.75205615     0.14100
H629        H  0.29506792  0.30591093  0.81284915     0.16700
C630        C  0.29676676  0.29974744  0.71959040    -0.30900
H631        H  0.29205735  0.30674132  0.69058110     0.16700
H632        H  0.38343810  0.25696607  0.68380572     0.16700
H633        H  0.29514010  0.18916986  0.80987668     0.16800
H634        H  0.38652562  0.25409150  0.80642268     0.16700
C635        C  0.21131908  0.50366992  0.54230481     0.30600
C636        C  0.20799974  0.50308701  0.96279153     0.30600
C637        C  0.22492933  0.47727598  0.52115934    -0.05600
C638        C  0.18416082  0.50330038  0.52490658    -0.06400
C639        C  0.22000275  0.02424973  0.52237449    -0.06200
C640        C  0.21949163  0.47464603  0.98101986    -0.05600
C641        C  0.18175140  0.50615098  0.98423438    -0.06400
C642        C  0.21861636  0.02301213  0.98176227    -0.06200
C643        C  0.23088707  0.44865807  0.96726098    -0.31600
N644        N  0.24474940  0.43599040  0.49835584     0.14900
C645        C  0.23861194  0.45167868  0.53099917    -0.31600
H646        H  0.24327586  0.44458294  0.55995343     0.16800
C647        C  0.15592056  0.50997025  0.97505975    -0.30600
N648        N  0.14282970  0.50696313  0.50933658     0.13600
C649        C  0.15935847  0.50566366  0.53941885    -0.30600
C650        C  0.22921938  0.05018393  0.97022352    -0.30900
N651        N  0.23863533  0.06717800  0.50271827     0.14100
H652        H  0.23110156  0.05805089  0.94081509     0.16700
C653        C  0.23231687  0.05032688  0.53426711    -0.30900
H654        H  0.23576059  0.05709332  0.56375440     0.16700
H655        H  0.15373964  0.50691271  0.56956293     0.16700
H656        H  0.23343629  0.44265007  0.93718487     0.16800
H657        H  0.14779536  0.51213510  0.94651571     0.16700
C658        C  0.20874291  0.50092528  0.79244646     0.30600
C659        C  0.21044574  0.50107602  0.71302994     0.30600
C660        C  0.22128008  0.47318698  0.77332430    -0.05600
C661        C  0.18232784  0.50289357  0.77191846    -0.06400
C662        C  0.22021437  0.02350792  0.77177353    -0.06200
C663        C  0.22241818  0.47325863  0.73309645    -0.05600
C664        C  0.18342698  0.50297404  0.73164520    -0.06400
C665        C  0.22034800  0.02312025  0.73145275    -0.06200
C666        C  0.23571725  0.44751983  0.72233615    -0.31600
N667        N  0.24174425  0.43142137  0.75449963     0.14900
C668        C  0.23309997  0.44708415  0.78585552    -0.31600
H669        H  0.23557749  0.44030741  0.81561773     0.16800
C670        C  0.15864078  0.50719925  0.71839836    -0.30600
N671        N  0.14245094  0.50927483  0.74927358     0.13600
C672        C  0.15659148  0.50718377  0.78205948    -0.30600
C673        C  0.23272327  0.04918028  0.71935439    -0.30900
N674        N  0.23914408  0.06600456  0.75073443     0.14100
H675        H  0.23631603  0.05577778  0.68976496     0.16700
C676        C  0.23136972  0.05055508  0.78281386    -0.30900
H677        H  0.23341908  0.05859303  0.81207825     0.16700
H678        H  0.14867549  0.51003326  0.81084271     0.16700
H679        H  0.24074545  0.44086825  0.69321730     0.16800
H680        H  0.15279634  0.50894439  0.68854253     0.16700
C681        C  0.18774984  0.48816489  0.89829139    -0.12700
C682        C  0.20810303  0.50188191  0.91866669     0.09400
C683        C  0.22832041  0.00586285  0.89717839    -0.12700
C684        C  0.22860242  0.00609763  0.85678063    -0.12700
C685        C  0.20876822  0.49990584  0.83663063     0.09400
C686        C  0.18807858  0.48718159  0.85786563    -0.12700
H687        H  0.17185395  0.47738462  0.91343175     0.13400
H688        H  0.24517263  0.01426779  0.91209415     0.13400
H689        H  0.24560541  0.01476865  0.84206808     0.13400
H690        H  0.17240519  0.47570248  0.84348733     0.13400
C691        C  0.20040908  0.02379939  0.60718946    -0.12700
C692        C  0.21077763  0.50306818  0.58657719     0.09400
C693        C  0.20808486  0.47558453  0.60672304    -0.12700
C694        C  0.20768003  0.47487250  0.64713751    -0.12700
C695        C  0.20991408  0.50164022  0.66878540     0.09400
C696        C  0.20060035  0.02344284  0.64766395    -0.12700
H697        H  0.19717737  0.04507975  0.59268027     0.13400
H698        H  0.20547183  0.45456034  0.59137823     0.13400
H699        H  0.20471870  0.45334868  0.66119757     0.13400
H700        H  0.19738264  0.04446854  0.66283468     0.13400
C701        C  0.26130980  0.14383571  0.78043274    -0.12700
C702        C  0.27672081  0.15257812  0.74861717     0.09400
C703        C  0.27903075  0.13256881  0.71723454    -0.12700
C704        C  0.26670380  0.10439488  0.71789931    -0.12700
C705        C  0.25156922  0.09539735  0.74991546     0.09400
C706        C  0.24887482  0.11566380  0.78104989    -0.12700
H707        H  0.25871044  0.15881173  0.80484394     0.13400
H708        H  0.29106409  0.13825989  0.69253707     0.13400
H709        H  0.26963445  0.08940034  0.69360437     0.13400
H710        H  0.23697825  0.10995413  0.80586199     0.13400
C711        C  0.26067727  0.35250564  0.78345937    -0.12700
C712        C  0.27738426  0.34422361  0.75299169     0.09400
C713        C  0.28275081  0.36542591  0.72377518    -0.12700
C714        C  0.27147565  0.39410348  0.72470030    -0.12700
C715        C  0.25441335  0.40231994  0.75478083     0.09400
C716        C  0.24925753  0.38123257  0.78430259    -0.12700
H717        H  0.25611102  0.33658053  0.80625699     0.13400
H718        H  0.29606545  0.36000953  0.70046064     0.13400
H719        H  0.27633552  0.40994377  0.70195991     0.11000
H720        H  0.23595298  0.38668481  0.80760247     0.13400
C721        C  0.27855143  0.13409016  0.53347835    -0.12700
C722        C  0.27428365  0.15461672  0.50316040     0.09400
C723        C  0.25761854  0.14606455  0.47316727    -0.12700
C724        C  0.24583625  0.11757526  0.47317097    -0.12700
C725        C  0.25043860  0.09683063  0.50313475     0.09400
C726        C  0.26678986  0.10556707  0.53346173    -0.12700
H727        H  0.29161157  0.13970264  0.55669087     0.13400
H728        H  0.25356334  0.16146007  0.44970955     0.13400
H729        H  0.23291346  0.11195005  0.44981054     0.13400
H730        H  0.27103223  0.09008927  0.55675424     0.13400
C731        C  0.28370005  0.36818829  0.52814243    -0.12700
C732        C  0.27948413  0.34800985  0.49747413     0.09400
C733        C  0.26424217  0.35770038  0.46631973    -0.12700
C734        C  0.25320420  0.38665908  0.46621645    -0.12700
C735        C  0.25718772  0.40667810  0.49722498     0.09400
C736        C  0.27278736  0.39706896  0.52798122    -0.12700
H737        H  0.29589276  0.36191009  0.55210124     0.13400
H738        H  0.26044771  0.34275255  0.44230422     0.13400
H739        H  0.24106783  0.39302978  0.44224101     0.13400
H740        H  0.27367569  0.40966591  0.04913322     0.13400
C741        C  0.33023717  0.22040020  0.89429541    -0.12700
C742        C  0.32837211  0.24763278  0.91511779     0.09400
C743        C  0.33234571  0.27461177  0.89422675    -0.12700
C744        C  0.33275907  0.27461398  0.85369506    -0.12700
C745        C  0.32937448  0.24761075  0.83280482     0.09400
C746        C  0.33080176  0.22039257  0.85380161    -0.12700
H747        H  0.33171250  0.19900597  0.90912993     0.13400
H748        H  0.33508380  0.29583288  0.90911459     0.13400
H749        H  0.33563920  0.29584169  0.83876847     0.13400
H750        H  0.33284256  0.19897560  0.83915176     0.13400
C751        C  0.33079554  0.22305104  0.60292448    -0.12700
C752        C  0.32758023  0.25023996  0.58237943     0.09400
C753        C  0.32897156  0.27728382  0.60367030    -0.12700
C754        C  0.32853249  0.27692114  0.64414413    -0.12700
C755        C  0.32665897  0.24950815  0.66464898     0.09400
C756        C  0.33025606  0.22267141  0.64337545    -0.12700
H757        H  0.33381994  0.20194971  0.58778657     0.13400
H758        H  0.33114906  0.29879634  0.58929565     0.13400
H759        H  0.33028245  0.29817901  0.65924995     0.13400
H760        H  0.33309096  0.20130202  0.65787010     0.13400
C761        C  0.11497000  0.51390025  0.74685653    -0.15800
C762        C  0.09706594  0.01162695  0.72950864    -0.31000
H763        H  0.10753665  0.52766656  0.72343658     0.13200
H764        H  0.10652296  0.02613621  0.70834381     0.13800
C765        C  0.11524927  0.51017656  0.51289307    -0.15800
C766        C  0.09588053  0.00110800  0.47388423    -0.31000
H767        H  0.10742855  0.52383643  0.53633639     0.13200
H768        H  0.10322102  0.98287987  0.95269589     0.13800
C769        C  0.01491772  0.04227518  0.87464933    -0.12700
C770        C  0.01551716  0.04267663  0.84000137    -0.14200
C771        C  0.01867472  0.97659821  0.62264992    -0.12700
C772        C  0.01845459  0.97614920  0.58810371    -0.14200
C773        C  0.43652749  0.24435765  0.76582590    -0.15800
C774        C  0.42104880  0.25939541  0.74169815    -0.31000
H775        H  0.42796943  0.22965529  0.78759683     0.13200
H776        H  0.42940323  0.27167999  0.71741526     0.13800
C777        C  0.42010373  0.24265890  0.49253597    -0.15800
C778        C  0.43606740  0.25829031  0.51555573    -0.31000
H779        H  0.42470670  0.27141649  0.03193710     0.13200
H780        H  0.42813232  0.27459861  0.53590104     0.13800
C781        C  0.51886621  0.27483238  0.90083439    -0.12700
C782        C  0.51887994  0.27452858  0.86632880    -0.14200
C783        C  0.51541001  0.21259315  0.61349709    -0.12700
C784        C  0.51468722  0.21138695  0.64809641    -0.14200
C785        C  0.93805197  0.01028111  0.72673418    -0.15800
C786        C  0.92275159  0.99389906  0.75012260    -0.31000
H787        H  0.92934096  0.02594437  0.70646305     0.13200
H788        H  0.93197220  0.47784725  0.78319643     0.13800
C789        C  0.84190314  0.02073627  0.88888928    -0.12700
C790        C  0.82644464  0.49652169  0.91672342     0.09400
C791        C  0.80545386  0.48447928  0.89608002    -0.12700
C792        C  0.80531012  0.48520797  0.85568310    -0.12700
C793        C  0.82513905  0.00125777  0.82818040     0.09400
C794        C  0.84279101  0.01937324  0.84858460    -0.12700
H795        H  0.85595303  0.03466893  0.90360951     0.13400
H796        H  0.78880519  0.47510907  0.91094985     0.13400
H797        H  0.78856683  0.47634097  0.84098223     0.13400
H798        H  0.85735372  0.03252782  0.83344236     0.13400
C799        C  0.85007064  0.47886158  0.60573381    -0.12700
C800        C  0.83032875  0.49337736  0.58486544     0.09400
C801        C  0.80652548  0.00796734  0.59891710    -0.12700
C802        C  0.80656907  0.00842864  0.63939157    -0.12700
C803        C  0.82816045  0.99819862  0.66025953     0.09400
C804        C  0.85030276  0.47959478  0.64623349    -0.12700
H805        H  0.86501497  0.46613048  0.59100749     0.13400
H806        H  0.78923182  0.01544926  0.58430702     0.13400
H807        H  0.78932471  0.01623244  0.65426443     0.13400
H808        H  0.86544596  0.46745264  0.66094711     0.13400
C809        C  0.92161346  0.99411625  0.48038946    -0.15800
C810        C  0.93737028  0.01589753  0.49342908    -0.31000
H811        H  0.93185303  0.47833602  0.96976518     0.13200
H812        H  0.92919778  0.03518837  0.50866172     0.13800
C813        C  0.76736197  0.14375345  0.71841764    -0.12700
C814        C  0.75065586  0.15020099  0.74971023     0.09400
C815        C  0.74839058  0.12901134  0.77972918    -0.12700
C816        C  0.76238222  0.10196500  0.77834436    -0.12700
C817        C  0.77904750  0.09553307  0.74696866     0.09400
C818        C  0.78131568  0.11675862  0.71702866    -0.12700
H819        H  0.77008585  0.15980923  0.69518450     0.13400
H820        H  0.73548215  0.13307609  0.80396906     0.13400
H821        H  0.75980119  0.08590285  0.80161409     0.13400
H822        H  0.79427561  0.11282404  0.69282349     0.13400
C823        C  0.77328401  0.35045897  0.78061474    -0.12700
C824        C  0.75561037  0.34373017  0.75128205     0.09400
C825        C  0.75248259  0.36437344  0.72077296    -0.12700
C826        C  0.76666335  0.39122975  0.71971017    -0.12700
C827        C  0.78419097  0.39807213  0.74919561     0.09400
C828        C  0.78746149  0.37734058  0.77956156    -0.12700
H829        H  0.77644023  0.33470246  0.80401828     0.13400
H830        H  0.73872900  0.36003619  0.69802029     0.13400
H831        H  0.76342459  0.40701102  0.69636014     0.13400
H832        H  0.80114433  0.38179166  0.80237801     0.13400
C833        C  0.61112296  0.25865405  0.74223021    -0.15800
C834        C  0.59540602  0.23897992  0.76010309    -0.31000
H835        H  0.60320518  0.27535650  0.72257212     0.13200
H836        H  0.60382629  0.22083162  0.77702950     0.13800
C837        C  0.76899776  0.14600753  0.03192196    -0.12700
C838        C  0.75183368  0.14962619  0.49867083     0.09400
C839        C  0.74983339  0.12990868  0.46701930    -0.12700
C840        C  0.76446852  0.10342845  0.46543722    -0.12700
C841        C  0.78142957  0.09595020  0.49551764     0.09400
C842        C  0.78349905  0.11933581  0.03031892    -0.12700
H843        H  0.77108083  0.16074207  0.05663721     0.13400
H844        H  0.73661400  0.13458104  0.44370014     0.13400
H845        H  0.76193675  0.08848776  0.44104977     0.13400
H846        H  0.79629899  0.11419343  0.05399675     0.13400
C847        C  0.77269721  0.34946544  0.47064405    -0.12700
C848        C  0.75468387  0.34309395  0.50011520     0.09400
C849        C  0.75168126  0.36372072  0.53072418    -0.12700
C850        C  0.76645461  0.39011823  0.53192269    -0.12700
C851        C  0.78446195  0.39651328  0.50245438     0.09400
C852        C  0.78748958  0.37587946  0.47184796    -0.12700
H853        H  0.77572847  0.33371215  0.44712907     0.13400
H854        H  0.73765961  0.35963186  0.55355764     0.13400
H855        H  0.76334949  0.40586782  0.55541682     0.13400
H856        H  0.80148650  0.38001922  0.44899400     0.13400
C857        C  0.68588033  0.26641458  0.89634414    -0.12700
C858        C  0.70508486  0.25097945  0.91722399     0.09400
C859        C  0.72668436  0.24030045  0.89614161    -0.12700
C860        C  0.72660260  0.23980005  0.85566060    -0.12700
C861        C  0.70508789  0.25035488  0.83485115     0.09400
C862        C  0.68590366  0.26615902  0.85584883    -0.12700
H863        H  0.67083763  0.27894793  0.91126695     0.13400
H864        H  0.74396986  0.23284468  0.91070130     0.13400
H865        H  0.74363900  0.23148495  0.84066593     0.13400
H866        H  0.67124287  0.27913677  0.84127029     0.13400
C867        C  0.69027801  0.22870825  0.60676462    -0.12700
C868        C  0.70898095  0.24507807  0.58562394     0.09400
C869        C  0.73046365  0.25626099  0.60588755    -0.12700
C870        C  0.73032559  0.25679201  0.64624517    -0.12700
C871        C  0.70866935  0.24623091  0.66724357     0.09400
C872        C  0.69006315  0.22937355  0.64704361    -0.12700
H873        H  0.67560334  0.21557117  0.59223670     0.13400
H874        H  0.74760411  0.26409341  0.59078195     0.13400
H875        H  0.74744307  0.26483982  0.66075075     0.13400
H876        H  0.67519820  0.21679090  0.66234134     0.13400
C877        C  0.59426726  0.23952624  0.49368247    -0.15800
C878        C  0.61114182  0.25621863  0.51373446    -0.31000
H879        H  0.60142240  0.22238407  0.47382261     0.13200
H880        H  0.60044568  0.22400782  0.97154582     0.13800
C881        C  0.71418233  0.74452282  0.45506412     0.30600
C882        C  0.71238748  0.74760770  0.03490713     0.30600
C883        C  0.72155791  0.77412014  0.47518651    -0.05600
C884        C  0.68740213  0.73736062  0.47291535    -0.06400
C885        C  0.73145351  0.72120799  0.47554123    -0.06200
C886        C  0.72615178  0.77435554  0.01506864    -0.05600
C887        C  0.68569370  0.74857045  0.01513640    -0.06400
C888        C  0.72543046  0.72032460  0.01570682    -0.06200
C889        C  0.73695647  0.80133878  0.02633870    -0.31600
N890        N  0.74448876  0.81695320  0.99435031     0.14900
C891        C  0.73306524  0.80072697  0.46385059    -0.31600
H892        H  0.73790022  0.80692558  0.43444674     0.16800
C893        C  0.65999388  0.75006285  0.02645314    -0.30600
N894        N  0.64614165  0.73197499  0.49005699     0.13600
C895        C  0.66262813  0.73261479  0.45940337    -0.30600
C896        C  0.73680196  0.69415737  0.02850151    -0.30900
N897        N  0.74346188  0.67722125  0.99729874     0.14100
H898        H  0.73947576  0.68760009  0.05831441     0.16700
C899        C  0.74154999  0.69342822  0.46542114    -0.30900
H900        H  0.74289491  0.68425491  0.43655822     0.16700
H901        H  0.65673709  0.73134083  0.42953550     0.16700
H902        H  0.73888544  0.80927819  0.05568517     0.16800
H903        H  0.65251333  0.75182743  0.05562173     0.16700
C904        C  0.71249342  0.74483060  0.20561058     0.30600
C905        C  0.71460203  0.74570984  0.28503934     0.30600
C906        C  0.72446510  0.77318775  0.22405790    -0.05600
C907        C  0.68599274  0.74336085  0.22718444    -0.06400
C908        C  0.72789659  0.71912230  0.22467477    -0.06200
C909        C  0.72560157  0.77337030  0.26418721    -0.05600
C910        C  0.68742294  0.74286523  0.26754603    -0.06400
C911        C  0.72871354  0.71944397  0.26491631    -0.06200
C912        C  0.73690034  0.80002219  0.27513429    -0.31600
N913        N  0.74268510  0.81621219  0.24284146     0.14900
C914        C  0.73480871  0.80020940  0.21158224    -0.31600
H915        H  0.73685410  0.80755793  0.18194989     0.16800
C916        C  0.66262130  0.73995478  0.28180396    -0.30600
N917        N  0.64603073  0.74082638  0.25191764     0.13600
C918        C  0.65979129  0.74326004  0.21842160    -0.30600
C919        C  0.74035752  0.69301711  0.27623776    -0.30900
N920        N  0.74748756  0.67718173  0.24435879     0.14100
H921        H  0.74293883  0.68531763  0.30555257     0.16700
C922        C  0.73991004  0.69288506  0.21260181    -0.30900
H923        H  0.74196875  0.68521213  0.18306613     0.16700
H924        H  0.65116253  0.74471806  0.19015220     0.16700
H925        H  0.74047067  0.80710150  0.30451073     0.16800
H926        H  0.65678895  0.73754823  0.31172756     0.16700
C927        C  0.82509688  0.99770788  0.45376912     0.30600
C928        C  0.82758591  0.00102013  0.03322120     0.30600
C929        C  0.81199714  0.97112326  0.47489724    -0.05600
C930        C  0.85250194  0.99626875  0.47070494    -0.06400
C931        C  0.81552160  0.52076395  0.48124577    -0.06200
C932        C  0.81223441  0.97519776  0.01441558    -0.05600
C933        C  0.85390577  0.99983485  0.01124556    -0.06400
C934        C  0.81503538  0.52200128  0.02087934    -0.06200
C935        C  0.80123823  0.94848046  0.02682027    -0.31600
N936        N  0.79397625  0.93229579  0.99532608     0.14900
C937        C  0.80106471  0.94393891  0.46477026    -0.31600
H938        H  0.79822097  0.93567147  0.43578297     0.16800
C939        C  0.88149322  0.49644696  0.02914140    -0.30600
N940        N  0.89600620  0.49422608  0.99633369     0.13600
C941        C  0.88139578  0.49238860  0.46579664    -0.30600
C942        C  0.80355580  0.54879158  0.03214464    -0.30900
N943        N  0.79513078  0.56356201  0.00017987     0.14100
H944        H  0.80160952  0.55718958  0.06133797     0.16700
C945        C  0.80296328  0.54644988  0.46959194    -0.30900
H946        H  0.79964007  0.55319875  0.44001576     0.16700
H947        H  0.88774308  0.48921023  0.43622177     0.16700
H948        H  0.79981476  0.94076667  0.05641944     0.16800
H949        H  0.88935327  0.49746940  0.05794938     0.16700
C950        C  0.82914464  0.49210071  0.21084661     0.30600
C951        C  0.82722954  0.49254514  0.29039629     0.30600
C952        C  0.81284742  0.97286275  0.22251234    -0.05600
C953        C  0.85390437  0.99837810  0.22486483    -0.06400
C954        C  0.81784641  0.52067555  0.22989471    -0.06200
C955        C  0.81194569  0.97230577  0.26275282    -0.05600
C956        C  0.85262244  0.99723965  0.26521933    -0.06400
C957        C  0.81667442  0.52069232  0.27005592    -0.06200
C958        C  0.80127421  0.94503724  0.27323796    -0.31600
N959        N  0.79473516  0.92967226  0.24084764     0.14900
C960        C  0.80186021  0.94642465  0.20961540    -0.31600
H961        H  0.80018613  0.93938951  0.17981577     0.16800
C962        C  0.87926720  0.48588037  0.28508360    -0.30600
N963        N  0.89567608  0.48659754  0.25445619     0.13600
C964        C  0.88165736  0.48933036  0.22161675    -0.30600
C965        C  0.80570540  0.54763896  0.28133152    -0.30900
N966        N  0.80039839  0.56413273  0.24919611     0.14100
H967        H  0.80195830  0.55467565  0.31077358     0.16700
C968        C  0.80814012  0.54802199  0.21778055    -0.30900
H969        H  0.80636763  0.55551764  0.18822233     0.16700
H970        H  0.89002750  0.49097226  0.19296697     0.16700
H971        H  0.79896567  0.93649664  0.30227440     0.16800
H972        H  0.88528222  0.48365660  0.31479643     0.16700
O973        O  0.48700999  0.72572682  0.99052375    -0.72300
O974        O  0.56367857  0.73282122  0.00365194    -0.73300
O975        O  0.52213872  0.71200870  0.05097838    -0.61900
O976        O  0.52342738  0.74403117  0.44734211    -0.70300
O977        O  0.52571611  0.79036030  0.47205714    -0.69900
O978        O  0.51721742  0.75890452  0.07311164    -0.61100
O979        O  0.55919336  0.77929469  0.02712418    -0.73700
O980        O  0.48207267  0.77232694  0.01335417    -0.72400
Cu981      Cu  0.52550995  0.72756852  0.99686587     1.04600
Cu982      Cu  0.52038515  0.77757451  0.02126584     1.04300
C983        C  0.47249107  0.74810927  0.99914904     0.93900
C984        C  0.57358982  0.75722431  0.01662688     0.93000
C985        C  0.51876506  0.73050159  0.07878026     0.85200
C986        C  0.52503811  0.77258377  0.44307067     0.91400
O987        O  0.56411588  0.73244648  0.26340010    -0.72300
O988        O  0.48722877  0.72597357  0.27988241    -0.73300
O989        O  0.52207532  0.71223896  0.21857983    -0.61900
O990        O  0.52918018  0.74593406  0.32467550    -0.70300
O991        O  0.52379258  0.79287388  0.30314345    -0.69900
O992        O  0.51821503  0.75927998  0.19657238    -0.61100
O993        O  0.48258020  0.77227047  0.25600940    -0.73700
O994        O  0.55970902  0.77945055  0.24191734    -0.72400
Cu995      Cu  0.52586966  0.72755381  0.27254461     1.04600
Cu996      Cu  0.52093243  0.77766379  0.24868799     1.04300
C997        C  0.57401509  0.75669758  0.24956424     0.93900
C998        C  0.47276834  0.74794617  0.26972749     0.93000
C999        C  0.51918414  0.73082516  0.19085596     0.85200
C1000       C  0.52706134  0.77425374  0.33078777     0.91400
O1001       O  0.02387571  0.50595894  0.06804283    -0.72300
O1002       O  0.01826392  0.53920804  0.46152946    -0.73300
O1003       O  0.98342304  0.52516322  0.52275302    -0.61900
O1004       O  0.05923011  0.52314804  0.00974433    -0.70300
O1005       O  0.05243716  0.98052671  0.96505148    -0.69900
O1006       O  0.97546818  0.98861374  0.97630203    -0.61100
O1007       O  0.01292077  0.00537666  0.41575421    -0.73700
O1008       O  0.01549614  0.96627042  0.02319750    -0.72400
Cu1009     Cu  0.02209812  0.52458720  0.51590306     1.04600
Cu1010     Cu  0.01374839  0.98297121  0.96966197     1.04300
C1011       C  0.02322299  0.47730125  0.07189703     0.93900
C1012       C  0.01506619  0.52033841  0.43418208     0.93000
C1013       C  0.96798689  0.50443778  0.01282436     0.85200
C1014       C  0.06976285  0.49975356  0.99468540     0.91400
O1015       O  0.05534762  0.98873570  0.24453906    -0.72300
O1016       O  0.97736543  0.98757569  0.24276287    -0.73300
O1017       O  0.01746530  0.96881192  0.19163997    -0.61900
O1018       O  0.01538556  0.00638821  0.29549664    -0.70300
O1019       O  0.01588839  0.53857951  0.29411735    -0.69900
O1020       O  0.02446190  0.50403261  0.18850686    -0.61100
O1021       O  0.98164425  0.52298750  0.23306328    -0.73700
O1022       O  0.05870225  0.51949843  0.24829362    -0.72400
Cu1023     Cu  0.01639388  0.98628404  0.24461305     1.04600
Cu1024     Cu  0.02030782  0.52292628  0.24016026     1.04300
C1025       C  0.06911537  0.49569726  0.26221949     0.93900
C1026       C  0.96773096  0.50021398  0.24246758     0.93000
C1027       C  0.02370170  0.47552958  0.18314199     0.85200
C1028       C  0.01308392  0.52007355  0.32206184     0.91400
C1029       C  0.33380026  0.75210731  0.46159974     0.30600
C1030       C  0.33234807  0.75137684  0.04147216     0.30600
C1031       C  0.31840505  0.72673829  0.48183326    -0.05600
C1032       C  0.36039172  0.74950427  0.48033721    -0.06400
C1033       C  0.32207898  0.78036440  0.48114858    -0.06200
C1034       C  0.32089055  0.72318015  0.02175957    -0.05600
C1035       C  0.35920245  0.75384207  0.02306906    -0.06400
C1036       C  0.31747999  0.77683230  0.02101335    -0.06200
C1037       C  0.30661485  0.69834560  0.03320600    -0.31600
N1038       N  0.29943038  0.68260068  0.00139432     0.14900
C1039       C  0.30330406  0.70263240  0.47071429    -0.31600
H1040       H  0.29896199  0.69601776  0.44144099     0.16800
C1041       C  0.38378487  0.75822435  0.03664222    -0.30600
N1042       N  0.40017332  0.75952470  0.00602556     0.13600
C1043       C  0.38528564  0.74475170  0.46733990    -0.30600
C1044       C  0.30226588  0.80091397  0.03195774    -0.30900
N1045       N  0.29428990  0.81559905  0.99978218     0.14100
H1046       H  0.29715101  0.80736454  0.06115686     0.16700
C1047       C  0.30693009  0.80433291  0.46949118    -0.30900
H1048       H  0.30176618  0.80985024  0.44014302     0.16700
H1049       H  0.39155553  0.74256415  0.43756052     0.16700
H1050       H  0.30089217  0.69269310  0.06243630     0.16800
H1051       H  0.38941798  0.76037797  0.06656164     0.16700
C1052       C  0.33361064  0.75173692  0.21192575     0.30600
C1053       C  0.33403253  0.75089476  0.29136920     0.30600
C1054       C  0.31992219  0.72459358  0.23141839    -0.05600
C1055       C  0.36028280  0.75163016  0.23089371    -0.06400
C1056       C  0.32001841  0.77845604  0.23223584    -0.06200
C1057       C  0.32001903  0.72421093  0.27177516    -0.05600
C1058       C  0.36054691  0.75094955  0.27106333    -0.06400
C1059       C  0.32021232  0.77805261  0.27255193    -0.06200
C1060       C  0.30512453  0.69982634  0.28326695    -0.31600
N1061       N  0.29674962  0.68502345  0.25137693     0.14900
C1062       C  0.30525388  0.70025020  0.21966898    -0.31600
H1063       H  0.30040998  0.69436606  0.19029728     0.16800
C1064       C  0.38607793  0.75241018  0.28218210    -0.30600
N1065       N  0.40108483  0.75436154  0.24981958     0.13600
C1066       C  0.38555023  0.75417294  0.21843375    -0.30600
C1067       C  0.30607322  0.80274889  0.28492026    -0.30900
N1068       N  0.29793302  0.81834768  0.25352886     0.14100
H1069       H  0.30195980  0.80905710  0.31449335     0.16700
C1070       C  0.30576235  0.80330899  0.22136097    -0.30900
H1071       H  0.30065739  0.80971275  0.19228904     0.16700
H1072       H  0.39217113  0.75630056  0.18880613     0.16700
H1073       H  0.30050880  0.69324760  0.31258569     0.16800
H1074       H  0.39312766  0.75333702  0.31150517     0.16700
C1075       C  0.20508535  0.99532992  0.04138982     0.30600
C1076       C  0.20637946  0.99773347  0.46215700     0.30600
C1077       C  0.21910883  0.96857988  0.02137698    -0.05600
C1078       C  0.17853470  0.99551214  0.02165568    -0.06400
C1079       C  0.22543086  0.52787341  0.02187444    -0.06200
C1080       C  0.21909370  0.97044084  0.48150342    -0.05600
C1081       C  0.17942768  0.99863420  0.48162008    -0.06400
C1082       C  0.22224226  0.53190088  0.48190744    -0.06200
C1083       C  0.23264454  0.94540830  0.46908039    -0.31600
N1084       N  0.24069652  0.92822404  0.99965731     0.14900
C1085       C  0.23332707  0.94352545  0.03199255    -0.31600
H1086       H  0.23810428  0.93674611  0.06104230     0.16800
C1087       C  0.15424012  0.00317599  0.46992122    -0.30600
N1088       N  0.13829797  0.00271388  0.00164438     0.13600
C1089       C  0.15329825  0.00025814  0.03346008    -0.30600
C1090       C  0.23348575  0.55873650  0.46992926    -0.30900
N1091       N  0.24664411  0.56877493  0.00098282     0.14100
H1092       H  0.23513354  0.56666751  0.44048144     0.16700
C1093       C  0.24006917  0.55245161  0.03289201    -0.30900
H1094       H  0.24485016  0.55857720  0.06216616     0.16700
H1095       H  0.14646497  0.00282841  0.06291205     0.16700
H1096       H  0.23654040  0.93925954  0.43934762     0.16800
H1097       H  0.14777341  0.00636906  0.44056927     0.16700
C1098       C  0.20557037  0.99585149  0.29169987     0.30600
C1099       C  0.20503273  0.99524659  0.21216331     0.30600
C1100       C  0.21969448  0.96952777  0.27217879    -0.05600
C1101       C  0.17865723  0.99466021  0.27280962    -0.06400
C1102       C  0.22174648  0.53101709  0.27281612    -0.06200
C1103       C  0.21977362  0.96911798  0.23191625    -0.05600
C1104       C  0.17849830  0.99438673  0.23250823    -0.06400
C1105       C  0.22323441  0.53030591  0.23258043    -0.06200
C1106       C  0.23465590  0.94457989  0.22100473    -0.31600
N1107       N  0.24263262  0.92983305  0.25326704     0.14900
C1108       C  0.23368196  0.94508111  0.28465714    -0.31600
H1109       H  0.23735863  0.93910371  0.31441174     0.16800
C1110       C  0.15300403  0.99501204  0.22113491    -0.30600
N1111       N  0.13780909  0.99551900  0.25333837     0.13600
C1112       C  0.15312271  0.99547370  0.28487881    -0.30600
C1113       C  0.23692496  0.55557247  0.22110555    -0.30900
N1114       N  0.24266398  0.57235340  0.25272568     0.14100
H1115       H  0.24212848  0.56163890  0.19183101     0.16700
C1116       C  0.23328467  0.55767980  0.28440199    -0.30900
H1117       H  0.23478127  0.56586056  0.31371151     0.16700
H1118       H  0.14594691  0.99701921  0.31424439     0.16700
H1119       H  0.23937021  0.93776161  0.19181968     0.16800
H1120       H  0.14601400  0.99507046  0.19175573     0.16700
C1121       C  0.18832190  0.97920991  0.39798949    -0.12700
C1122       C  0.20698909  0.99618495  0.41799402     0.09400
C1123       C  0.23043476  0.51292004  0.39719141    -0.12700
C1124       C  0.23016641  0.51273349  0.35678589    -0.12700
C1125       C  0.20662672  0.99488796  0.33590758     0.09400
C1126       C  0.18821565  0.97845669  0.35759646    -0.12700
H1127       H  0.17382459  0.96624445  0.41353355     0.13400
H1128       H  0.24788603  0.52025721  0.41154330     0.13400
H1129       H  0.24751144  0.51976347  0.34147576     0.13400
H1130       H  0.17387009  0.96459082  0.34352208     0.13400
C1131       C  0.20741205  0.52985796  0.10687197    -0.12700
C1132       C  0.20326481  0.99504281  0.08567678     0.09400
C1133       C  0.20234846  0.96774948  0.10660648    -0.12700
C1134       C  0.20245902  0.96772685  0.14706233    -0.12700
C1135       C  0.20328784  0.99500460  0.16791976     0.09400
C1136       C  0.20714064  0.53018878  0.14728195    -0.12700
H1137       H  0.20529290  0.55109594  0.09178751     0.13400
H1138       H  0.20084339  0.94629270  0.09196543     0.13400
H1139       H  0.20124860  0.94626349  0.16183646     0.13400
H1140       H  0.20459835  0.55165090  0.16167328     0.13400
C1141       C  0.26425705  0.65053318  0.28048011    -0.12700
C1142       C  0.28242421  0.65707244  0.25118641     0.09400
C1143       C  0.28716624  0.63540563  0.22236032    -0.12700
C1144       C  0.27422204  0.60766846  0.22298467    -0.12700
C1145       C  0.25608970  0.60098721  0.25233694     0.09400
C1146       C  0.25116944  0.62281549  0.28099946    -0.12700
H1147       H  0.26001734  0.66698065  0.30278644     0.13400
H1148       H  0.30140991  0.63962776  0.19985249     0.13400
H1149       H  0.27881380  0.59122202  0.20085032     0.13400
H1150       H  0.23698932  0.61862640  0.30358114     0.13400
C1151       C  0.26685318  0.85369495  0.28405458    -0.12700
C1152       C  0.28423520  0.84666832  0.25395787     0.09400
C1153       C  0.28832063  0.86786851  0.22428679    -0.12700
C1154       C  0.27495535  0.89528784  0.22430858    -0.12700
C1155       C  0.25723302  0.90212502  0.25403770     0.09400
C1156       C  0.25346094  0.88113643  0.28406800    -0.12700
H1157       H  0.26318499  0.83770459  0.30711680     0.13400
H1158       H  0.30208812  0.86336773  0.20123374     0.13400
H1159       H  0.27863894  0.91124540  0.20121644     0.11000
H1160       H  0.23966773  0.88560607  0.30708737     0.13400
C1161       C  0.28854522  0.63381509  0.03230481    -0.12700
C1162       C  0.28577032  0.65413774  0.00142417     0.09400
C1163       C  0.27014859  0.64576269  0.97016844    -0.12700
C1164       C  0.25749963  0.61780255  0.96988804    -0.12700
C1165       C  0.26023622  0.59739520  0.00079559     0.09400
C1166       C  0.27603953  0.60578734  0.03194298    -0.12700
H1167       H  0.30086959  0.63929666  0.05644931     0.13400
H1168       H  0.26734180  0.66100909  0.94613979     0.13400
H1169       H  0.24518711  0.61255595  0.94569558     0.13400
H1170       H  0.27909024  0.59058957  0.05592784     0.13400
C1171       C  0.28543907  0.86559986  0.02812848    -0.12700
C1172       C  0.28060576  0.84392157  0.99944687     0.09400
C1173       C  0.26285167  0.85067861  0.97016577    -0.12700
C1174       C  0.24993843  0.87849313  0.96993554    -0.12700
C1175       C  0.25463052  0.90004458  0.99891877     0.09400
C1176       C  0.27262999  0.89334493  0.02784477    -0.12700
H1177       H  0.29949778  0.86126727  0.05048336     0.13400
H1178       H  0.25869082  0.83427493  0.94786976     0.13400
H1179       H  0.23590411  0.88291209  0.94757761     0.13400
H1180       H  0.27665884  0.91208909  0.55307710     0.13400
C1181       C  0.33689813  0.72421853  0.39705808    -0.12700
C1182       C  0.33506753  0.75165514  0.41746933     0.09400
C1183       C  0.33850634  0.77851991  0.39628021    -0.12700
C1184       C  0.33889574  0.77814248  0.35591272    -0.12700
C1185       C  0.33559697  0.75094253  0.33547282     0.09400
C1186       C  0.33706268  0.72385659  0.35664051    -0.12700
H1187       H  0.33858496  0.70296178  0.41222046     0.13400
H1188       H  0.34139741  0.79988444  0.41075578     0.13400
H1189       H  0.34202857  0.79922770  0.34079119     0.13400
H1190       H  0.33887732  0.70233401  0.34214210     0.13400
C1191       C  0.33685366  0.72471933  0.10653771    -0.12700
C1192       C  0.33315647  0.75166278  0.08564841     0.09400
C1193       C  0.33512319  0.77900490  0.10620294    -0.12700
C1194       C  0.33599470  0.77914577  0.14661153    -0.12700
C1195       C  0.33467112  0.75196247  0.16770525     0.09400
C1196       C  0.33755973  0.72486608  0.14689270    -0.12700
H1197       H  0.33980775  0.70344913  0.09182258     0.13400
H1198       H  0.33661000  0.80034279  0.09112737     0.13400
H1199       H  0.33829780  0.80058369  0.16109806     0.13400
H1200       H  0.34069819  0.70368415  0.16171166     0.13400
C1201       C  0.11003046  0.99523507  0.25470553    -0.15800
C1202       C  0.09744777  0.49433202  0.26732953    -0.31000
H1203       H  0.10036099  0.98232010  0.27733123     0.13200
H1204       H  0.10532054  0.47796218  0.28745885     0.13800
C1205       C  0.11097156  0.00891579  0.00212959    -0.15800
C1206       C  0.09817835  0.49830295  0.98977582    -0.31000
H1207       H  0.10270342  0.02109650  0.02655172     0.13200
H1208       H  0.10709096  0.47851005  0.46934460     0.13800
C1209       C  0.01255496  0.53043835  0.39540092    -0.12700
C1210       C  0.01173833  0.53051622  0.36084657    -0.14200
C1211       C  0.02529325  0.46491419  0.14447201    -0.12700
C1212       C  0.02502830  0.46544013  0.10991878    -0.14200
C1213       C  0.44445857  0.74487752  0.27332771    -0.15800
C1214       C  0.42865031  0.75854384  0.24822536    -0.31000
H1215       H  0.43653813  0.72951448  0.29487215     0.13200
H1216       H  0.43686406  0.77146808  0.22437138     0.13800
C1217       C  0.42749342  0.76434102  0.00938360    -0.15800
C1218       C  0.44445301  0.74569911  0.99225435    -0.31000
H1219       H  0.43629543  0.72427720  0.47306431     0.13200
H1220       H  0.43738233  0.72723623  0.97451845     0.13800
C1221       C  0.52642547  0.78391964  0.40454945    -0.12700
C1222       C  0.52734985  0.78434203  0.36990350    -0.14200
C1223       C  0.51744466  0.72013065  0.11758263    -0.12700
C1224       C  0.51759952  0.72036156  0.15214850    -0.14200
C1225       C  0.93945392  0.50150765  0.23680581    -0.15800
C1226       C  0.92330203  0.48398498  0.25752728    -0.31000
H1227       H  0.93163850  0.51823337  0.21710684     0.13200
H1228       H  0.93044079  0.98142586  0.27353036     0.13800
C1229       C  0.84581595  0.51188572  0.39483527    -0.12700
C1230       C  0.82358046  0.99952762  0.40963748     0.09400
C1231       C  0.80300572  0.98661591  0.38893180    -0.12700
C1232       C  0.80302160  0.98700842  0.34848135    -0.12700
C1233       C  0.82630335  0.49478280  0.33461634     0.09400
C1234       C  0.84523623  0.51150832  0.35444357    -0.12700
H1235       H  0.86064069  0.52515687  0.40876787     0.13400
H1236       H  0.78642893  0.97703903  0.40373663     0.13400
H1237       H  0.78637543  0.97783987  0.33386173     0.13400
H1238       H  0.85975688  0.52431996  0.33873949     0.13400
C1239       C  0.84716292  0.98446283  0.09783021    -0.12700
C1240       C  0.82751066  0.99945685  0.07742277     0.09400
C1241       C  0.80744720  0.50416513  0.10594965    -0.12700
C1242       C  0.80735325  0.50289555  0.14632956    -0.12700
C1243       C  0.82872338  0.49127375  0.16655157     0.09400
C1244       C  0.84704148  0.98391465  0.13828885    -0.12700
H1245       H  0.86216451  0.97207065  0.08278994     0.13400
H1246       H  0.79041442  0.51283379  0.09178432     0.13400
H1247       H  0.79035415  0.51090960  0.16169635     0.13400
H1248       H  0.86189975  0.97100964  0.15254816     0.13400
C1249       C  0.92369853  0.49134852  0.99357491    -0.15800
C1250       C  0.93959477  0.50625144  0.01741104    -0.31000
H1251       H  0.92940070  0.97585208  0.46279976     0.13200
H1252       H  0.93158617  0.52154757  0.03895023     0.13800
C1253       C  0.77804130  0.64043581  0.21553865    -0.12700
C1254       C  0.76043323  0.64838192  0.24492590     0.09400
C1255       C  0.75632664  0.62824375  0.27579958    -0.12700
C1256       C  0.76963779  0.60085564  0.27740676    -0.12700
C1257       C  0.78736164  0.59290247  0.24815140     0.09400
C1258       C  0.79142281  0.61300370  0.21717171    -0.12700
H1259       H  0.78185744  0.65572044  0.19174903     0.13400
H1260       H  0.74252147  0.63344860  0.29853690     0.13400
H1261       H  0.76562290  0.58563939  0.30117975     0.13400
H1262       H  0.80519315  0.60773454  0.19441668     0.13400
C1263       C  0.77302163  0.85261888  0.27165829    -0.12700
C1264       C  0.75602519  0.84475138  0.24185914     0.09400
C1265       C  0.75263902  0.86491811  0.21092149    -0.12700
C1266       C  0.76573918  0.89254731  0.21014510    -0.12700
C1267       C  0.78240738  0.90053974  0.24031260     0.09400
C1268       C  0.78606409  0.88015626  0.27088420    -0.12700
H1269       H  0.77659159  0.83730474  0.29537532     0.13400
H1270       H  0.73948098  0.85966270  0.18770933     0.13400
H1271       H  0.76230321  0.90798214  0.18649095     0.13400
H1272       H  0.79921919  0.88531663  0.29413101     0.13400
C1273       C  0.61850925  0.73785676  0.25633927    -0.15800
C1274       C  0.60217816  0.75844483  0.24190161    -0.31000
H1275       H  0.61116270  0.72026375  0.27542985     0.13200
H1276       H  0.60980577  0.77742079  0.22541591     0.13800
C1277       C  0.77548412  0.64066485  0.53029387    -0.12700
C1278       C  0.75616841  0.64833784  0.99838697     0.09400
C1279       C  0.75031740  0.62601119  0.97100433    -0.12700
C1280       C  0.76305400  0.59816891  0.97166324    -0.12700
C1281       C  0.78190034  0.59215537  0.99969646     0.09400
C1282       C  0.78748526  0.61244382  0.53115255    -0.12700
H1283       H  0.77951802  0.65669356  0.55307908     0.13400
H1284       H  0.73567639  0.62999075  0.94938260     0.13400
H1285       H  0.75796148  0.58117785  0.95055442     0.13400
H1286       H  0.80052405  0.60743051  0.55459240     0.13400
C1287       C  0.77376548  0.85458428  0.96427376    -0.12700
C1288       C  0.75677749  0.84621604  0.99433464     0.09400
C1289       C  0.75241253  0.86662464  0.02486019    -0.12700
C1290       C  0.76487515  0.89465258  0.02543618    -0.12700
C1291       C  0.78186965  0.90297401  0.99542520     0.09400
C1292       C  0.78619040  0.88263350  0.96482631    -0.12700
H1293       H  0.77784795  0.83921590  0.94069196     0.13400
H1294       H  0.73906680  0.86114741  0.04809468     0.13400
H1295       H  0.76081904  0.91008977  0.04896335     0.13400
H1296       H  0.79947934  0.88818893  0.94154072     0.13400
C1297       C  0.69685974  0.76305984  0.39074969    -0.12700
C1298       C  0.71573977  0.74671018  0.41105452     0.09400
C1299       C  0.73717664  0.73571002  0.38992373    -0.12700
C1300       C  0.73738672  0.73645737  0.34954201    -0.12700
C1301       C  0.71601266  0.74776243  0.32912592     0.09400
C1302       C  0.69712855  0.76381028  0.35036783    -0.12700
H1303       H  0.68169564  0.77508420  0.40613319     0.13400
H1304       H  0.75417892  0.72724202  0.40432166     0.13400
H1305       H  0.75454510  0.72861513  0.33451755     0.13400
H1306       H  0.68234731  0.77676459  0.33584948     0.13400
C1307       C  0.69340790  0.73014336  0.09981581    -0.12700
C1308       C  0.71269965  0.74608106  0.07914469     0.09400
C1309       C  0.73441295  0.75594736  0.10001373    -0.12700
C1310       C  0.73460813  0.75458900  0.14042339    -0.12700
C1311       C  0.71293089  0.74381178  0.16133362     0.09400
C1312       C  0.69337408  0.72927688  0.14025244    -0.12700
H1313       H  0.67857859  0.71761465  0.08487100     0.13400
H1314       H  0.75152605  0.76424941  0.08519486     0.13400
H1315       H  0.75183221  0.76203788  0.15528102     0.13400
H1316       H  0.67846360  0.71629925  0.15471387     0.13400
C1317       C  0.60196315  0.76007804  0.01880694    -0.15800
C1318       C  0.61734435  0.74529860  0.99367154    -0.31000
H1319       H  0.61026632  0.77565681  0.03954709     0.13200
H1320       H  0.60955499  0.71748014  0.46443307     0.13800
C1321       C  0.71311793  0.74703887  0.95530800     0.30600
C1322       C  0.71170769  0.74445372  0.53437259     0.30600
C1323       C  0.72662748  0.77393818  0.97477878    -0.05600
C1324       C  0.68609295  0.74734955  0.97479540    -0.06400
C1325       C  0.72561787  0.71964089  0.97543764    -0.06200
C1326       C  0.72020508  0.77426513  0.51528508    -0.05600
C1327       C  0.68595625  0.73798828  0.51327748    -0.06400
C1328       C  0.73027579  0.72158896  0.51586943    -0.06200
C1329       C  0.73051537  0.80135030  0.52735022    -0.31600
N1330       N  0.73868481  0.81720013  0.49587945     0.14900
C1331       C  0.73818520  0.80038489  0.96267709    -0.31600
H1332       H  0.74091861  0.80747300  0.93301202     0.16800
C1333       C  0.66003409  0.73565248  0.52286095    -0.30600
N1334       N  0.64505662  0.74789947  0.99453579     0.13600
C1335       C  0.66067585  0.74572235  0.96303266    -0.30600
C1336       C  0.74059528  0.69492140  0.52888353    -0.30900
N1337       N  0.74789089  0.67813298  0.49796860     0.14100
H1338       H  0.74074145  0.68723247  0.55855637     0.16700
C1339       C  0.73634190  0.69227610  0.96486580    -0.30900
H1340       H  0.73870784  0.68366284  0.93584566     0.16700
H1341       H  0.65384850  0.74277326  0.93382169     0.16700
H1342       H  0.73340060  0.80818718  0.55695600     0.16800
H1343       H  0.65150792  0.73782842  0.55131170     0.16700
C1344       C  0.71408371  0.74676065  0.70465507     0.30600
C1345       C  0.71257905  0.74742906  0.78419509     0.30600
C1346       C  0.73154245  0.77021739  0.72438844    -0.05600
C1347       C  0.68760378  0.75394940  0.72321718    -0.06400
C1348       C  0.72176006  0.71740031  0.72488637    -0.06200
C1349       C  0.73090843  0.77036965  0.76472353    -0.05600
C1350       C  0.68650191  0.75345192  0.76357947    -0.06400
C1351       C  0.72092490  0.71746896  0.76510898    -0.06200
C1352       C  0.74337962  0.79624175  0.77665336    -0.31600
N1353       N  0.75120530  0.81194801  0.74489313     0.14900
C1354       C  0.74352802  0.79658363  0.71308954    -0.31600
H1355       H  0.74517572  0.80502477  0.68392316     0.16800
C1356       C  0.66054876  0.75582459  0.77351184    -0.30600
N1357       N  0.64652247  0.75956525  0.74079911     0.13600
C1358       C  0.66283602  0.75889311  0.71004374    -0.30600
C1359       C  0.73048460  0.68992370  0.77691565    -0.30900
N1360       N  0.73778286  0.67384295  0.74519831     0.14100
H1361       H  0.73335725  0.68268134  0.80638174     0.16700
C1362       C  0.73230779  0.69039969  0.71327885    -0.30900
H1363       H  0.73660907  0.68383684  0.68381437     0.16700
H1364       H  0.65679127  0.76048414  0.68027779     0.16700
H1365       H  0.74476353  0.80420387  0.80611007     0.16800
H1366       H  0.65217317  0.75400363  0.80213532     0.16700
C1367       C  0.82488893  0.00190235  0.95392341     0.30600
C1368       C  0.82810927  0.99816458  0.53323284     0.30600
C1369       C  0.81111290  0.97542483  0.97422309    -0.05600
C1370       C  0.85219010  0.99931307  0.97095669    -0.06400
C1371       C  0.81419147  0.52137067  0.98069309    -0.06200
C1372       C  0.81334399  0.97152153  0.51514304    -0.05600
C1373       C  0.85435998  0.99740479  0.51100630    -0.06400
C1374       C  0.81644494  0.52115379  0.52143461    -0.06200
C1375       C  0.80242541  0.94498974  0.52835247    -0.31600
N1376       N  0.79486816  0.92836912  0.49736759     0.14900
C1377       C  0.80043295  0.94828246  0.96323730    -0.31600
H1378       H  0.79822054  0.94012566  0.93406306     0.16800
C1379       C  0.88303907  0.49616342  0.52921291    -0.30600
N1380       N  0.89748229  0.49377742  0.49639424     0.13600
C1381       C  0.87994371  0.49283779  0.96569448    -0.30600
C1382       C  0.80485326  0.54769479  0.53314573    -0.30900
N1383       N  0.79640245  0.56274550  0.50143542     0.14100
H1384       H  0.80291625  0.55569759  0.56250926     0.16700
C1385       C  0.80161436  0.54696831  0.96860445    -0.30900
H1386       H  0.79809248  0.55344105  0.93896887     0.16700
H1387       H  0.88629619  0.49002100  0.93604884     0.16700
H1388       H  0.80095748  0.93788722  0.55819306     0.16800
H1389       H  0.89101407  0.49733543  0.55792145     0.16700
C1390       C  0.83065802  0.49601257  0.71142410     0.30600
C1391       C  0.82787172  0.49628396  0.79083397     0.30600
C1392       C  0.81448497  0.97249978  0.72396032    -0.05600
C1393       C  0.85483281  0.99951477  0.72534837    -0.06400
C1394       C  0.81717850  0.52346715  0.73020192    -0.06200
C1395       C  0.81382080  0.97229360  0.76424043    -0.05600
C1396       C  0.85380284  0.99863592  0.76572155    -0.06400
C1397       C  0.81560562  0.52329829  0.77036716    -0.06200
C1398       C  0.80432565  0.94460340  0.77550569    -0.31600
N1399       N  0.79839252  0.92843329  0.74349200     0.14900
C1400       C  0.80466656  0.94522368  0.71183192    -0.31600
H1401       H  0.80328899  0.93766712  0.68220381     0.16800
C1402       C  0.88013370  0.49331788  0.78687296    -0.30600
N1403       N  0.89682990  0.49465712  0.75664864     0.13600
C1404       C  0.88311283  0.49675310  0.72343552    -0.30600
C1405       C  0.80275958  0.54904361  0.78162871    -0.30900
N1406       N  0.79667668  0.56508590  0.74950835     0.14100
H1407       H  0.79829650  0.55563738  0.81103080     0.16700
C1408       C  0.80577874  0.54991420  0.71808153    -0.30900
H1409       H  0.80382711  0.55742990  0.68854725     0.16700
H1410       H  0.89172288  0.49810876  0.69491966     0.16700
H1411       H  0.80240356  0.93644371  0.80480712     0.16800
H1412       H  0.88586217  0.49082812  0.81668814     0.16700
O1413       O  0.48380660  0.72819091  0.50105950    -0.72300
O1414       O  0.56212555  0.72377253  0.49817565    -0.73300
O1415       O  0.52242125  0.70674161  0.55199838    -0.61900
O1416       O  0.52847183  0.74636544  0.94520243    -0.70300
O1417       O  0.52380664  0.79326025  0.96757153    -0.69900
O1418       O  0.52421742  0.75294375  0.57723408    -0.61100
O1419       O  0.56342758  0.76953433  0.52457241    -0.73700
O1420       O  0.48642984  0.77412985  0.52669828    -0.72400
Cu1421     Cu  0.52285457  0.72403698  0.49861680     1.04600
Cu1422     Cu  0.52502008  0.77333849  0.52597351     1.04300
C1423       C  0.47292856  0.75185821  0.51502025     0.93900
C1424       C  0.57498221  0.74625771  0.51127458     0.93000
C1425       C  0.52292884  0.72428960  0.58112661     0.85200
C1426       C  0.52693739  0.77480193  0.93974815     0.91400
O1427       O  0.56231368  0.72346613  0.77220230    -0.72300
O1428       O  0.48511397  0.72451539  0.77726772    -0.73300
O1429       O  0.52226060  0.70509463  0.72135054    -0.61900
O1430       O  0.52523276  0.74321532  0.82567781    -0.70300
O1431       O  0.52536836  0.78931035  0.79982875    -0.69900
O1432       O  0.52201864  0.75144996  0.69639220    -0.61100
O1433       O  0.48446244  0.77039550  0.75114502    -0.73700
O1434       O  0.56288255  0.76917359  0.74557717    -0.72400
Cu1435     Cu  0.52371094  0.72244573  0.77495719     1.04600
Cu1436     Cu  0.52364931  0.77169345  0.74714715     1.04300
C1437       C  0.57483505  0.74612622  0.75900362     0.93900
C1438       C  0.47258598  0.74756999  0.76565518     0.93000
C1439       C  0.52175800  0.72284562  0.69233115     0.85200
C1440       C  0.52593745  0.77192425  0.82904631     0.91400
O1441       O  0.02555745  0.50682238  0.56811867    -0.72300
O1442       O  0.01718542  0.54399456  0.96420376    -0.73300
O1443       O  0.98190876  0.52666361  0.02377776    -0.61900
O1444       O  0.06053141  0.52057056  0.50812891    -0.70300
O1445       O  0.05313590  0.98371118  0.46309573    -0.69900
O1446       O  0.97596269  0.99039684  0.47348467    -0.61100
O1447       O  0.01238835  0.00272151  0.91814669    -0.73700
O1448       O  0.01606496  0.96899564  0.52109343    -0.72400
Cu1449     Cu  0.02067801  0.52654513  0.01737985     1.04600
Cu1450     Cu  0.01436396  0.98554005  0.46733240     1.04300
C1451       C  0.02485286  0.47844048  0.57436545     0.93900
C1452       C  0.01438864  0.52643598  0.93535336     0.93000
C1453       C  0.96938803  0.50251028  0.51371489     0.85200
C1454       C  0.07085131  0.49638928  0.49491598     0.91400
O1455       O  0.05654856  0.98754860  0.74315003    -0.72300
O1456       O  0.97840699  0.98664658  0.74218938    -0.73300
O1457       O  0.01821503  0.96931112  0.68957858    -0.61900
O1458       O  0.01675455  0.00377492  0.79563698    -0.70300
O1459       O  0.01759787  0.54539845  0.79571893    -0.69900
O1460       O  0.02569815  0.50926467  0.69080170    -0.61100
O1461       O  0.98316833  0.52960415  0.73503528    -0.73700
O1462       O  0.06018245  0.52475809  0.75020997    -0.72400
Cu1463     Cu  0.01750361  0.98516158  0.74357680     1.04600
Cu1464     Cu  0.02181912  0.52890520  0.74207592     1.04300
C1465       C  0.07013220  0.50097136  0.76491593     0.93900
C1466       C  0.96896278  0.50714807  0.74470756     0.93000
C1467       C  0.02483183  0.48068641  0.68617298     0.85200
C1468       C  0.01417616  0.52737902  0.82403973     0.91400
C1469       C  0.33447666  0.75076270  0.96199378     0.30600
C1470       C  0.33451352  0.75266936  0.54105592     0.30600
C1471       C  0.32185797  0.72286734  0.98143386    -0.05600
C1472       C  0.36054424  0.75324287  0.98292941    -0.06400
C1473       C  0.31843061  0.77658245  0.98063335    -0.06200
C1474       C  0.31881075  0.72687977  0.52214183    -0.05600
C1475       C  0.36091707  0.75005682  0.52048586    -0.06400
C1476       C  0.32237437  0.78070880  0.52152240    -0.06200
C1477       C  0.30408241  0.70254539  0.53428345    -0.31600
N1478       N  0.29509284  0.68763514  0.50275741     0.14900
C1479       C  0.30804083  0.69780680  0.96968999    -0.31600
H1480       H  0.30414531  0.69124677  0.94025964     0.16800
C1481       C  0.38642650  0.74636185  0.53106016    -0.30600
N1482       N  0.40100401  0.74313421  0.49837038     0.13600
C1483       C  0.38637217  0.75646936  0.97294448    -0.30600
C1484       C  0.30731262  0.80498031  0.53299990    -0.30900
N1485       N  0.29862792  0.81968635  0.50118330     0.14100
H1486       H  0.30176268  0.81072398  0.56225693     0.16700
C1487       C  0.30348537  0.80057726  0.96831823    -0.30900
H1488       H  0.29987085  0.80712250  0.93877843     0.16700
H1489       H  0.39443060  0.75741453  0.94400941     0.16700
H1490       H  0.30003682  0.69614140  0.56385813     0.16800
H1491       H  0.39374259  0.74523680  0.56022731     0.16700
C1492       C  0.33369497  0.74983647  0.71182765     0.30600
C1493       C  0.33458948  0.74965978  0.79134746     0.30600
C1494       C  0.32274538  0.72117011  0.73168321    -0.05600
C1495       C  0.36027545  0.75340067  0.73051483    -0.06400
C1496       C  0.31774758  0.77481250  0.73210442    -0.06200
C1497       C  0.32308121  0.72114911  0.77206021    -0.05600
C1498       C  0.36083388  0.75299981  0.77065237    -0.06400
C1499       C  0.31823555  0.77488548  0.77240853    -0.06200
C1500       C  0.30956984  0.69580039  0.78402824    -0.31600
N1501       N  0.30172206  0.68007284  0.75251379     0.14900
C1502       C  0.30916097  0.69574396  0.72051857    -0.31600
H1503       H  0.30381222  0.68979179  0.69138135     0.16800
C1504       C  0.38633763  0.75646225  0.78127144    -0.30600
N1505       N  0.40098727  0.75936872  0.74862003     0.13600
C1506       C  0.38525776  0.75780424  0.71755128    -0.30600
C1507       C  0.30330363  0.79912722  0.78443375    -0.30900
N1508       N  0.29421365  0.81395406  0.75287062     0.14100
H1509       H  0.29980907  0.80593231  0.81397000     0.16700
C1510       C  0.30243552  0.79870658  0.72094292    -0.30900
H1511       H  0.29754780  0.80453507  0.69160158     0.16700
H1512       H  0.39162820  0.75933443  0.68774900     0.16700
H1513       H  0.30515006  0.68955273  0.81351259     0.16800
H1514       H  0.39365271  0.75720769  0.81045689     0.16700
C1515       C  0.20565597  0.99741197  0.54163974     0.30600
C1516       C  0.20573845  0.99567860  0.96193195     0.30600
C1517       C  0.21910368  0.97029290  0.52170928    -0.05600
C1518       C  0.17911721  0.99845036  0.52187030    -0.06400
C1519       C  0.22383146  0.53122828  0.52213413    -0.06200
C1520       C  0.21901405  0.96882174  0.98115385    -0.05600
C1521       C  0.17879481  0.99564538  0.98136093    -0.06400
C1522       C  0.22397483  0.52859498  0.98170954    -0.06200
C1523       C  0.23213174  0.94365316  0.96840714    -0.31600
N1524       N  0.24130791  0.93020033  0.50053137     0.14900
C1525       C  0.23355756  0.94552815  0.53264275    -0.31600
H1526       H  0.23841555  0.93917550  0.56181686     0.16800
C1527       C  0.15364582  0.00039684  0.96974183    -0.30600
N1528       N  0.13877295  0.00528359  0.50175313     0.13600
C1529       C  0.15378792  0.00284077  0.53360490    -0.30600
C1530       C  0.23677146  0.55436423  0.96966275    -0.30900
N1531       N  0.24258948  0.57371227  0.50136946     0.14100
H1532       H  0.23835486  0.56230177  0.94023393     0.16700
C1533       C  0.23699458  0.55686263  0.53317854    -0.30900
H1534       H  0.24209378  0.56296193  0.56233388     0.16700
H1535       H  0.14687094  0.00494703  0.56307240     0.16700
H1536       H  0.23552559  0.93731561  0.93860757     0.16800
H1537       H  0.14714112  0.00386112  0.94045737     0.16700
C1538       C  0.20695005  0.99620708  0.79176961     0.30600
C1539       C  0.20637391  0.99610605  0.71233496     0.30600
C1540       C  0.21999349  0.96915493  0.77203294    -0.05600
C1541       C  0.18002380  0.99665530  0.77289196    -0.06400
C1542       C  0.22367183  0.52742880  0.77332131    -0.06200
C1543       C  0.21999995  0.96897607  0.73183769    -0.05600
C1544       C  0.17984994  0.99654817  0.73265342    -0.06400
C1545       C  0.22496303  0.52709121  0.73310648    -0.06200
C1546       C  0.23337706  0.94331900  0.72071379    -0.31600
N1547       N  0.24070073  0.92766330  0.75273084     0.14900
C1548       C  0.23266522  0.94356842  0.78424182    -0.31600
H1549       H  0.23603668  0.93738164  0.81398906     0.16800
C1550       C  0.15435329  0.99709744  0.72129587    -0.30600
N1551       N  0.13915124  0.99748599  0.75350422     0.13600
C1552       C  0.15449205  0.99748417  0.78500628    -0.30600
C1553       C  0.23953052  0.55176664  0.72187712    -0.30900
N1554       N  0.24632180  0.56777007  0.75373594     0.14100
H1555       H  0.24450135  0.55792028  0.69254931     0.16700
C1556       C  0.23653469  0.55314974  0.78523211    -0.30900
H1557       H  0.23860924  0.56070057  0.81471091     0.16700
H1558       H  0.14731794  0.99852112  0.81441005     0.16700
H1559       H  0.23749779  0.93650577  0.69138376     0.16800
H1560       H  0.14737185  0.99664959  0.69191923     0.16700
C1561       C  0.18822628  0.97810227  0.89696908    -0.12700
C1562       C  0.20679873  0.99449470  0.91784070     0.09400
C1563       C  0.23064406  0.50946047  0.89757144    -0.12700
C1564       C  0.23097910  0.50845033  0.85724056    -0.12700
C1565       C  0.20753289  0.99457417  0.83588486     0.09400
C1566       C  0.18878099  0.97784881  0.85659245    -0.12700
H1567       H  0.17339640  0.96512051  0.91176599     0.13400
H1568       H  0.24831326  0.51566051  0.91215829     0.13400
H1569       H  0.24881339  0.51412480  0.84226096     0.13400
H1570       H  0.17459133  0.96427253  0.84172482     0.13400
C1571       C  0.20796954  0.52983390  0.60821422    -0.12700
C1572       C  0.20391691  0.99699213  0.58591418     0.09400
C1573       C  0.20228218  0.96959803  0.60651824    -0.12700
C1574       C  0.20257538  0.96925487  0.64694393    -0.12700
C1575       C  0.20445687  0.99629670  0.66811394     0.09400
C1576       C  0.20755343  0.52912708  0.64862908    -0.12700
H1577       H  0.20520649  0.55135090  0.59411712     0.13400
H1578       H  0.20013421  0.94831933  0.59160459     0.13400
H1579       H  0.20057325  0.94775799  0.66142185     0.13400
H1580       H  0.20481718  0.55016312  0.66400984     0.13400
C1581       C  0.27156285  0.64391595  0.78423188    -0.12700
C1582       C  0.28775330  0.65174050  0.75291390     0.09400
C1583       C  0.29044589  0.63116077  0.72221432    -0.12700
C1584       C  0.27716701  0.60357585  0.72269369    -0.12700
C1585       C  0.26070549  0.59586614  0.75381561     0.09400
C1586       C  0.25818914  0.61639324  0.78464887    -0.12700
H1587       H  0.26876798  0.65932069  0.80815340     0.13400
H1588       H  0.30317479  0.63616638  0.69803836     0.13400
H1589       H  0.28008529  0.58818515  0.69879723     0.13400
H1590       H  0.24543953  0.61158372  0.80882971     0.13400
C1591       C  0.26626688  0.85209995  0.78564483    -0.12700
C1592       C  0.28025562  0.84234793  0.75288500     0.09400
C1593       C  0.28111450  0.86138538  0.72034390    -0.12700
C1594       C  0.26834978  0.88921675  0.72042427    -0.12700
C1595       C  0.25425627  0.89898813  0.75304173     0.09400
C1596       C  0.25342202  0.88000653  0.78571003    -0.12700
H1597       H  0.26491314  0.83805441  0.81114322     0.13400
H1598       H  0.29217884  0.85521727  0.69489025     0.13400
H1599       H  0.27002524  0.90324129  0.69497215     0.11000
H1600       H  0.24250832  0.88638005  0.81122698     0.13400
C1601       C  0.28525769  0.63809207  0.53232666    -0.12700
C1602       C  0.28116495  0.65935068  0.50290271     0.09400
C1603       C  0.26424808  0.65190566  0.47270917    -0.12700
C1604       C  0.25169392  0.62384636  0.47202141    -0.12700
C1605       C  0.25581200  0.60253668  0.50148715     0.09400
C1606       C  0.27282745  0.61004479  0.53156903    -0.12700
H1607       H  0.29862203  0.64281565  0.55547957     0.13400
H1608       H  0.26050871  0.66790086  0.44978285     0.13400
H1609       H  0.23847330  0.61906607  0.44872080     0.13400
H1610       H  0.27696897  0.59404827  0.55430541     0.13400
C1611       C  0.28697883  0.86867475  0.53067355    -0.12700
C1612       C  0.28372306  0.84727439  0.50114148     0.09400
C1613       C  0.26647807  0.85381837  0.47102560    -0.12700
C1614       C  0.25278172  0.88112659  0.47057363    -0.12700
C1615       C  0.25601562  0.90247072  0.50022593     0.09400
C1616       C  0.27334120  0.89593554  0.53019573    -0.12700
H1617       H  0.30052215  0.86460531  0.55379726     0.13400
H1618       H  0.26331256  0.83768329  0.44806890     0.13400
H1619       H  0.23929263  0.88529410  0.44741021     0.13400
H1620       H  0.27700878  0.90970982  0.05007771     0.13400
C1621       C  0.34002918  0.72339718  0.89716571    -0.12700
C1622       C  0.33676901  0.75056709  0.91777744     0.09400
C1623       C  0.33843216  0.77765851  0.89655982    -0.12700
C1624       C  0.33834086  0.77735060  0.85607138    -0.12700
C1625       C  0.33651654  0.74995506  0.83556289     0.09400
C1626       C  0.33987785  0.72308829  0.85673028    -0.12700
H1627       H  0.34311389  0.70229152  0.91213985     0.13400
H1628       H  0.33997812  0.79917550  0.91114303     0.13400
H1629       H  0.33987545  0.79864173  0.84090077     0.13400
H1630       H  0.34298199  0.70176985  0.84222598     0.13400
C1631       C  0.33902182  0.72477411  0.60533937    -0.12700
C1632       C  0.33607310  0.75222719  0.58529894     0.09400
C1633       C  0.33723800  0.77904115  0.60710686    -0.12700
C1634       C  0.33679519  0.77819318  0.64755012    -0.12700
C1635       C  0.33497454  0.75053951  0.66754374     0.09400
C1636       C  0.33845033  0.72392772  0.64579215    -0.12700
H1637       H  0.34181507  0.70382452  0.58975017     0.13400
H1638       H  0.33916847  0.80076618  0.59316067     0.13400
H1639       H  0.33823854  0.79930307  0.66311422     0.13400
H1640       H  0.34132113  0.70240373  0.65983563     0.13400
C1641       C  0.11137769  0.99632824  0.75491957    -0.15800
C1642       C  0.09840408  0.49878947  0.76990752    -0.31000
H1643       H  0.10195891  0.98416829  0.77845132     0.13200
H1644       H  0.10585231  0.48274515  0.79080662     0.13800
C1645       C  0.11131678  0.01111119  0.50222029    -0.15800
C1646       C  0.09917759  0.49445254  0.49018873    -0.31000
H1647       H  0.10276281  0.02210191  0.52733683     0.13200
H1648       H  0.10619412  0.48220332  0.96922320     0.13800
C1649       C  0.01259119  0.53813568  0.89718319    -0.12700
C1650       C  0.01244844  0.53841163  0.86257964    -0.14200
C1651       C  0.02667711  0.46936618  0.64784662    -0.12700
C1652       C  0.02664768  0.46857617  0.61329539    -0.14200
C1653       C  0.44417860  0.74728577  0.76981305    -0.15800
C1654       C  0.42863267  0.76290357  0.74635243    -0.31000
H1655       H  0.43567238  0.73190128  0.79085408     0.13200
H1656       H  0.43695316  0.77602875  0.72277837     0.13800
C1657       C  0.42849018  0.73841435  0.49603713    -0.15800
C1658       C  0.44457257  0.75392505  0.51874757    -0.31000
H1659       H  0.43426204  0.78114168  0.02986624     0.13200
H1660       H  0.43661942  0.77018471  0.53915073     0.13800
C1661       C  0.52785982  0.78524679  0.90115232    -0.12700
C1662       C  0.52734731  0.78415102  0.86673814    -0.14200
C1663       C  0.52187733  0.71238196  0.61931047    -0.12700
C1664       C  0.52134768  0.71154326  0.65389647    -0.14200
C1665       C  0.94074429  0.50885517  0.73895932    -0.15800
C1666       C  0.92440276  0.49208512  0.76031369    -0.31000
H1667       H  0.93315676  0.52519434  0.71854492     0.13200
H1668       H  0.93123790  0.98036627  0.77296791     0.13800
C1669       C  0.84428988  0.51453994  0.89607861    -0.12700
C1670       C  0.82348656  0.00381189  0.90990178     0.09400
C1671       C  0.80297343  0.99080809  0.88918048    -0.12700
C1672       C  0.80381340  0.98948541  0.84885708    -0.12700
C1673       C  0.82616630  0.49797282  0.83489096     0.09400
C1674       C  0.84410858  0.51531461  0.85575547    -0.12700
H1675       H  0.85843060  0.52817020  0.91102647     0.13400
H1676       H  0.78596047  0.98217546  0.90385127     0.13400
H1677       H  0.78745954  0.97976912  0.83401724     0.13400
H1678       H  0.85819022  0.52937883  0.84095627     0.13400
C1679       C  0.84778423  0.98283541  0.59854751    -0.12700
C1680       C  0.82818148  0.99755789  0.57767368     0.09400
C1681       C  0.80857329  0.50346203  0.60602835    -0.12700
C1682       C  0.80872379  0.50403379  0.64643056    -0.12700
C1683       C  0.83065221  0.49461309  0.66716764     0.09400
C1684       C  0.84763240  0.98290329  0.63912904    -0.12700
H1685       H  0.86283256  0.97031474  0.58373275     0.13400
H1686       H  0.79113864  0.51053067  0.59146695     0.13400
H1687       H  0.79138858  0.51149286  0.66139335     0.13400
H1688       H  0.86241006  0.97009795  0.65372834     0.13400
C1689       C  0.92513534  0.49056313  0.49371871    -0.15800
C1690       C  0.94106876  0.50474278  0.51817498    -0.31000
H1691       H  0.92857758  0.97774307  0.96136648     0.13200
H1692       H  0.93319412  0.51992280  0.53994612     0.13800
C1693       C  0.77107482  0.64009744  0.71734159    -0.12700
C1694       C  0.75209944  0.64597590  0.74571482     0.09400
C1695       C  0.74815714  0.62490652  0.77550985    -0.12700
C1696       C  0.76291824  0.59849532  0.77693190    -0.12700
C1697       C  0.78193020  0.59265107  0.74859468     0.09400
C1698       C  0.78584514  0.61373006  0.71878561    -0.12700
H1699       H  0.77496689  0.65623231  0.69453034     0.13400
H1700       H  0.73349655  0.62875746  0.79751453     0.13400
H1701       H  0.75914231  0.58240490  0.79983663     0.13400
H1702       H  0.80061316  0.61006732  0.69689791     0.13400
C1703       C  0.77994569  0.84995035  0.77451585    -0.12700
C1704       C  0.76335761  0.84124065  0.74457724     0.09400
C1705       C  0.75896068  0.86148624  0.71401109    -0.12700
C1706       C  0.77080556  0.88979481  0.71340351    -0.12700
C1707       C  0.78723052  0.89863065  0.74340423     0.09400
C1708       C  0.79178500  0.87836983  0.77393885    -0.12700
H1709       H  0.78398219  0.83465013  0.79810397     0.13400
H1710       H  0.74587669  0.85581769  0.69088255     0.13400
H1711       H  0.76655121  0.90510766  0.68992711     0.13400
H1712       H  0.80467258  0.88434777  0.79721075     0.13400
C1713       C  0.61880181  0.76206377  0.73824329    -0.15800
C1714       C  0.60331950  0.74533907  0.76099058    -0.31000
H1715       H  0.61048390  0.77601061  0.71568218     0.13200
H1716       H  0.61194999  0.72940780  0.78099721     0.13800
C1717       C  0.77491361  0.64228179  0.02652311    -0.12700
C1718       C  0.75919413  0.64851624  0.49961474     0.09400
C1719       C  0.75468396  0.62737038  0.47021698    -0.12700
C1720       C  0.76661419  0.59911909  0.47112496    -0.12700
C1721       C  0.78337209  0.59146960  0.50136332     0.09400
C1722       C  0.78767694  0.61446022  0.02715323    -0.12700
H1723       H  0.78004434  0.65931978  0.04755184     0.13400
H1724       H  0.74178342  0.63253627  0.44665484     0.13400
H1725       H  0.76258982  0.58319282  0.44823916     0.13400
H1726       H  0.80240506  0.61057907  0.04866531     0.13400
C1727       C  0.77036326  0.85245613  0.46633037    -0.12700
C1728       C  0.75332464  0.84498387  0.49675982     0.09400
C1729       C  0.75129168  0.86478159  0.52843904    -0.12700
C1730       C  0.76550846  0.89168684  0.52922874    -0.12700
C1731       C  0.78196359  0.89947991  0.49827537     0.09400
C1732       C  0.78449369  0.87932943  0.46709457    -0.12700
H1733       H  0.77308508  0.83742731  0.44201716     0.13400
H1734       H  0.73826513  0.85987754  0.55227293     0.13400
H1735       H  0.76295549  0.90685152  0.55347309     0.13400
H1736       H  0.79748788  0.88424561  0.44321992     0.13400
C1737       C  0.69545910  0.76549383  0.89056148    -0.12700
C1738       C  0.71376273  0.74825566  0.91095384     0.09400
C1739       C  0.73435550  0.73564605  0.88940571    -0.12700
C1740       C  0.73412943  0.73591134  0.84889545    -0.12700
C1741       C  0.71325324  0.74863491  0.82854938     0.09400
C1742       C  0.69515242  0.76560915  0.85010752    -0.12700
H1743       H  0.68147508  0.77935093  0.90581799     0.13400
H1744       H  0.75100915  0.72611861  0.90365441     0.13400
H1745       H  0.75050158  0.72631911  0.83350553     0.13400
H1746       H  0.68124768  0.77998114  0.83601845     0.13400
C1747       C  0.69393501  0.72802741  0.60092673    -0.12700
C1748       C  0.71256802  0.74353963  0.57855446     0.09400
C1749       C  0.73451020  0.75470668  0.59781096    -0.12700
C1750       C  0.73554086  0.75512983  0.63813599    -0.12700
C1751       C  0.71459913  0.74441593  0.66054205     0.09400
C1752       C  0.69494295  0.72848609  0.64128473    -0.12700
H1753       H  0.67915880  0.71439776  0.58771490     0.13400
H1754       H  0.75111227  0.76292156  0.58161105     0.13400
H1755       H  0.75315960  0.76296986  0.65139252     0.13400
H1756       H  0.68025410  0.71630678  0.65750618     0.13400
C1757       C  0.60342453  0.74591975  0.51247025    -0.15800
C1758       C  0.61834795  0.73017347  0.48778347    -0.31000
H1759       H  0.61252554  0.76088643  0.53319399     0.13200
H1760       H  0.60870533  0.73203346  0.97068539     0.13800
loop_ 
_geom_bond_atom_site_label_1 
_geom_bond_atom_site_label_2 
_geom_bond_distance 
_geom_bond_site_symmetry_2 
_ccdc_geom_bond_type 
C1            C3   1.538       .  S
C1            C5   1.541       .  S
C1            C4   1.552       .  S
C1          C418   1.533       .  S
C2            C6   1.544       .  S
C2            C8   1.535       .  S
C2            C7   1.547       .  S
C2          C428   1.539       .  S
C3           C11   1.378       .  A
C3          C446   1.394       .  A
C4           C15   1.386       .  A
C4          C447   1.399       .  A
C5           C19   1.376       .  A
C5          C448   1.390       .  A
C6            C9   1.379       .  A
C6          C443   1.396   1_554  A
C7           C13   1.381       .  A
C7          C444   1.400   1_554  A
C8           C16   1.377       .  A
C8          C445   1.395   1_554  A
C9           N10   1.360       .  A
C9           H22   1.080       .  S
N10         C451   1.359   1_554  A
N10         C408   1.440       .  S
C11         N450   1.361       .  A
C11          H12   1.082       .  S
C13         N454   1.357   1_554  A
C13          H23   1.080       .  S
N14          C15   1.360       .  A
N14         C453   1.350       .  A
N14         C878   1.434       .  S
C15          H21   1.081       .  S
C16          N17   1.360       .  A
C16          H18   1.082       .  S
N17         C459   1.357   1_554  A
N17         C398   1.439       .  S
C19         N457   1.359       .  A
C19          H20   1.080       .  S
C24          C26   1.542       .  S
C24          C28   1.537       .  S
C24          C27   1.550       .  S
C24         C431   1.536       .  S
C25          C29   1.532       .  S
C25          C31   1.540       .  S
C25          C30   1.538       .  S
C25         C421   1.533       .  S
C26          C34   1.380       .  A
C26          C29   1.393       .  A
C27          C38   1.385       .  A
C27          C30   1.400       .  A
C28          C42   1.376       .  A
C28          C31   1.395       .  A
C29          C32   1.375       .  A
C30          C36   1.375       .  A
C31          C39   1.378       .  A
C32          N33   1.360       .  A
C32          H45   1.082       .  S
N33          C34   1.359       .  A
N33         C384   1.441       .  S
C34          H35   1.081       .  S
C36          N37   1.351       .  A
C36          H46   1.082       .  S
N37          C38   1.359       .  A
N37         C393   1.434       .  S
C38          H44   1.081       .  S
C39          N40   1.360       .  A
C39          H41   1.081       .  S
N40          C42   1.359       .  A
N40         C374   1.440       .  S
C42          H43   1.082       .  S
C47          C49   1.535       .  S
C47          C50   1.541       .  S
C47         C350   1.535       .  S
C47         C931   1.528       .  S
C48          C52   1.535       .  S
C48          C53   1.547       .  S
C48         C360   1.533       .  S
C48         C934   1.544       .  S
C49          C57   1.373       .  A
C49         C492   1.395       .  A
C50         C941   1.377       .  A
C50         C493   1.401       .  A
C51         C927   1.528   1_545  S
C51          C65   1.372       .  A
C51         C494   1.392       .  A
C52          C55   1.374       .  A
C52         C489   1.394   1_554  A
C53         C490   1.398   1_554  A
C53         C939   1.383       .  A
C54         C928   1.540       .  S
C54          C62   1.377       .  A
C54         C491   1.392   1_554  A
C55          N56   1.359       .  A
C55          H68   1.082       .  S
N56         C497   1.359   1_554  A
N56         C411   1.439       .  S
C57         N496   1.356       .  A
C57          H58   1.081       .  S
C59         C933   1.385       .  A
C59          N60   1.358   1_554  A
C59          H69   1.081   1_565  S
N60         C501   1.349       .  A
N60         C369   1.431       .  S
C61         C930   1.372       .  A
C61         N500   1.349       .  A
C61          H67   1.082       .  S
C62          N63   1.360   1_554  A
C62          H64   1.081       .  S
N63         C505   1.361       .  A
N63         C401   1.441       .  S
C65         N503   1.359       .  A
C65          H66   1.082       .  S
C70          C74   1.542   1_565  S
C70         C363   1.534       .  S
C70         C952   1.534       .  S
C70         C953   1.549       .  S
C71          C77   1.531   1_565  S
C71         C353   1.532   1_565  S
C71         C955   1.536       .  S
C71         C956   1.540       .  S
C72         C950   1.538       .  S
C72          C80   1.378       .  A
C72          C75   1.397       .  A
C73         C950   1.549       .  S
C73          C76   1.400       .  A
C73         C964   1.385       .  A
C74          C88   1.379       .  A
C74          C77   1.393       .  A
C75         C951   1.541       .  S
C75          C78   1.378       .  A
C76         C951   1.540       .  S
C76         C962   1.375       .  A
C77          C85   1.372       .  A
C78          N79   1.358       .  A
C78          H91   1.081       .  S
N79          C80   1.360       .  A
N79         C387   1.439       .  S
C80          H81   1.082       .  S
C82         C956   1.377       .  A
C82          N83   1.353       .  A
C82          H92   1.082       .  S
N83          C84   1.358       .  A
N83         C346   1.436       .  S
C84         C953   1.381       .  A
C84          H90   1.081   1_565  S
C85          N86   1.359       .  A
C85          H87   1.082       .  S
N86          C88   1.360       .  A
N86         C377   1.441       .  S
C88          H89   1.081       .  S
O93        Cu101   2.009       .  S
O93         C103   1.277       .  A
O94        Cu101   2.007   1_554  S
O94         C104   1.278       .  A
O95        Cu101   2.004   1_554  S
O95         C105   1.274       .  A
O96        Cu541   1.985       .  S
O96         C106   1.275       .  A
O97        Cu542   2.005       .  S
O97         C106   1.274       .  A
O98        Cu102   1.984       .  S
O98         C105   1.275       .  A
O99        Cu102   2.003       .  S
O99         C104   1.276       .  A
O100       Cu102   2.003       .  S
O100        C103   1.278   1_554  A
Cu101       O536   1.979       .  S
Cu101      Cu102   2.381   1_556  S
Cu102       O537   1.997   1_554  S
C103        C338   1.472       .  S
C104        C437   1.468       .  S
C105        C343   1.422       .  S
C106        C341   1.423       .  S
O107       Cu115   2.010       .  S
O107        C117   1.279       .  A
O108       Cu115   2.011       .  S
O108        C118   1.277       .  A
O109       Cu115   2.002       .  S
O109        C119   1.274       .  A
O110       Cu115   1.986       .  S
O110        C120   1.275       .  A
O111       Cu116   2.006       .  S
O111        C120   1.274       .  A
O112       Cu116   1.984       .  S
O112        C119   1.275       .  A
O113       Cu116   2.007       .  S
O113        C118   1.278       .  A
O114       Cu116   2.010       .  S
O114        C117   1.277       .  A
Cu115      Cu116   2.380       .  S
C117        C394   1.474       .  S
C118        C333   1.472       .  S
C119        C344   1.422       .  S
C120        C342   1.424       .  S
O121       Cu569   1.978   1_554  S
O121        C131   1.274   1_545  A
O122       Cu129   2.001       .  S
O122        C132   1.273       .  A
O123       Cu129   2.017   1_655  S
O123        C573   1.278       .  A
O124       Cu569   2.009       .  S
O124        C134   1.278       .  A
O125       Cu130   2.015       .  S
O125       C1014   1.278       .  A
O126       Cu130   2.012   1_655  S
O126       C1013   1.279   1_556  A
O127       Cu570   1.985       .  S
O127       C1012   1.275       .  A
O128       Cu130   2.001   1_554  S
O128       C1011   1.274       .  A
Cu129       O561   1.976       .  S
Cu129       O564   2.018       .  S
Cu129     Cu1450   2.380   1_545  S
Cu130       O567   1.983       .  S
Cu130     Cu1449   2.380   1_556  S
C131       O1008   1.273       .  A
C131        C332   1.417       .  S
C132       O1007   1.276       .  A
C132        C329   1.424       .  S
C133        O563   1.277   1_556  A
C133       O1006   1.278   1_545  A
C133        C370   1.473       .  S
C134       O1005   1.276   1_545  A
C134        C326   1.469   1_545  S
O135       Cu143   2.014       .  S
O135       C1025   1.278       .  A
O136       Cu143   2.008   1_655  S
O136       C1026   1.279       .  A
O137       Cu143   2.000       .  S
O137       C1027   1.274       .  A
O138       Cu143   1.982       .  S
O138       C1028   1.274       .  A
O139       Cu144   2.011       .  S
O139        C148   1.276       .  A
O140       Cu144   1.987       .  S
O140        C147   1.276   1_545  A
O141       Cu144   1.999   1_655  S
O141        C146   1.275       .  A
O142       Cu144   2.000       .  S
O142        C145   1.275       .  A
Cu143     Cu1024   2.380       .  S
Cu144     Cu1023   2.382   1_545  S
C145       O1015   1.279   1_545  A
C145        C322   1.469       .  S
C146       O1016   1.279   1_545  A
C146        C345   1.470       .  S
C147       O1017   1.272       .  A
C147        C331   1.419       .  S
C148       O1018   1.273       .  A
C148        C330   1.422       .  S
C149        C151   1.545       .  S
C149        C153   1.545       .  S
C149        C152   1.529       .  S
C149        C302   1.531       .  S
C150        C154   1.539       .  S
C150        C156   1.537       .  S
C150        C155   1.523       .  S
C150        C312   1.532       .  S
C151        C159   1.381       .  A
C151        C594   1.396       .  A
C152        C163   1.374       .  A
C152        C595   1.391       .  A
C153        C167   1.382       .  A
C153        C596   1.397       .  A
C154        C157   1.376       .  A
C154        C591   1.398   1_554  A
C155        C161   1.370       .  A
C155        C592   1.391   1_554  A
C156        C164   1.373       .  A
C156        C593   1.399   1_554  A
C157        N158   1.356   1_554  A
C157        H170   1.081       .  S
N158        C599   1.362       .  A
N158        C282   1.445   1_556  S
C159        N598   1.359       .  A
C159        H160   1.080       .  S
C161        N162   1.352       .  A
C161        H171   1.083       .  S
N162        C603   1.361   1_554  A
N162        C337   1.432       .  S
C163        N602   1.355       .  A
C163        H169   1.083       .  S
C164        N165   1.356   1_554  A
C164        H166   1.081       .  S
N165        C607   1.360       .  A
N165        C292   1.441       .  S
C167        N605   1.359       .  A
C167        H168   1.081       .  S
C172        C174   1.545       .  S
C172        C176   1.543       .  S
C172        C175   1.531       .  S
C172        C315   1.532       .  S
C173        C177   1.546       .  S
C173        C179   1.545       .  S
C173        C178   1.531       .  S
C173        C305   1.529       .  S
C174        C182   1.379       .  A
C174        C177   1.397       .  A
C175        C186   1.376       .  A
C175        C178   1.390       .  A
C176        C190   1.378       .  A
C176        C179   1.397       .  A
C177        C180   1.382       .  A
C178        C184   1.376       .  A
C179        C187   1.381       .  A
C180        N181   1.359       .  A
C180        H193   1.080       .  S
N181        C182   1.358       .  A
N181        C262   1.443       .  S
C182        H183   1.081       .  S
C184        N185   1.359       .  A
C184        H194   1.082       .  S
N185        C186   1.357       .  A
N185        C334   1.436       .  S
C186        H192   1.083       .  S
C187        N188   1.358       .  A
C187        H189   1.081       .  S
N188        C190   1.358       .  A
N188        C272   1.441       .  S
C190        H191   1.081       .  S
C195        C197   1.546       .  S
C195        C198   1.533       .  S
C195        C252   1.532       .  S
C195       C1079   1.543       .  S
C196        C200   1.535       .  S
C196        C201   1.545       .  S
C196        C242   1.532       .  S
C196       C1082   1.548       .  S
C197        C205   1.380       .  A
C197        C640   1.392   1_554  A
C198        C209   1.375       .  A
C198        C641   1.396   1_554  A
C199       C1075   1.548   1_545  S
C199        C213   1.382       .  A
C199        C642   1.396   1_554  A
C200        C203   1.378       .  A
C200        C637   1.392       .  A
C201        C207   1.382       .  A
C201        C638   1.395       .  A
C202       C1076   1.547   1_545  S
C202        C210   1.380       .  A
C202        C639   1.398       .  A
C203        N644   1.361       .  A
C203        H216   1.082       .  S
N204        C205   1.362   1_556  A
N204        C643   1.358       .  A
N204        C295   1.443       .  S
C205        H206   1.080       .  S
C207        N648   1.358       .  A
C207        H217   1.081       .  S
N208        C209   1.354       .  A
N208        C647   1.359   1_554  A
N208        C325   1.436       .  S
C209        H215   1.082       .  S
C210        N651   1.360       .  A
C210        H212   1.080       .  S
N211        C213   1.362       .  A
N211        C650   1.359   1_554  A
N211        C285   1.448       .  S
C213        H214   1.080       .  S
C218        C220   1.535       .  S
C218        C221   1.546       .  S
C218        C245   1.532       .  S
C218       C1102   1.547       .  S
C219        C223   1.543       .  S
C219        C224   1.532       .  S
C219        C255   1.534       .  S
C219       C1105   1.541       .  S
C220        C228   1.378       .  A
C220        C223   1.393       .  A
C221        C232   1.383       .  A
C221        C224   1.397       .  A
C222       C1098   1.544   1_545  S
C222        C236   1.379       .  A
C222        C225   1.397       .  A
C223        C226   1.377       .  A
C224        C230   1.373       .  A
C225       C1099   1.545   1_545  S
C225        C233   1.380       .  A
C226        N227   1.360       .  A
C226        H239   1.080       .  S
N227        C228   1.360       .  A
N227        C275   1.443       .  S
C228        H229   1.082       .  S
C230        N231   1.354       .  A
C230        H240   1.083       .  S
N231        C232   1.359       .  A
N231        C321   1.435       .  S
C232        H238   1.081       .  S
C233        N234   1.360       .  A
C233        H235   1.080       .  S
N234        C236   1.359       .  A
N234        C265   1.444       .  S
C236        H237   1.080       .  S
C241        C242   1.408       .  A
C241        C246   1.401       .  A
C241        H247   1.079       .  S
C242       C1123   1.407       .  A
C243        C244   1.401       .  A
C243       C1122   1.407   1_545  A
C243        H248   1.080       .  S
C244       C1125   1.408   1_545  A
C244        H249   1.081       .  S
C245        C246   1.406       .  A
C245       C1124   1.409       .  A
C246        H250   1.079       .  S
C251        C256   1.402       .  A
C251       C1132   1.407   1_545  A
C251        H257   1.081       .  S
C252        C253   1.407       .  A
C252       C1131   1.408       .  A
C253        C254   1.400       .  A
C253        H258   1.079       .  S
C254        C255   1.407       .  A
C254        H259   1.080       .  S
C255       C1136   1.408       .  A
C256       C1135   1.408   1_545  A
C256        H260   1.080       .  S
C261        C262   1.405       .  A
C261        C266   1.399       .  A
C261        H267   1.082       .  S
C262        C263   1.406       .  A
C263        C264   1.397       .  A
C263        H268   1.082       .  S
C264        C265   1.406       .  A
C264        H269   1.082       .  S
C265        C266   1.407       .  A
C266        H270   1.081       .  S
C271        C272   1.406       .  A
C271        C276   1.402       .  A
C271        H277   1.082       .  S
C272        C273   1.404       .  A
C273        C274   1.394       .  A
C273        H278   1.082       .  S
C274        C275   1.405       .  A
C274        H279   1.082       .  S
C275        C276   1.408       .  A
C276        H280   1.082       .  S
C281        C282   1.408       .  A
C281        C286   1.398       .  A
C281        H287   1.082       .  S
C282        C283   1.404   1_554  A
C283        C284   1.400       .  A
C283        H288   1.082       .  S
C284        C285   1.410   1_556  A
C284        H289   1.081       .  S
C285        C286   1.406       .  A
C286        H290   1.081       .  S
C291        C292   1.405   1_554  A
C291        C296   1.393       .  A
C291        H297   1.082       .  S
C292        C293   1.405       .  A
C293        C294   1.402       .  A
C293        H298   1.082       .  S
C294        C295   1.409       .  A
C294        H299   1.082       .  S
C295        C296   1.404   1_556  A
C296        H740   1.081       .  S
H300        C736   1.081       .  S
C301        C302   1.407       .  A
C301        C306   1.399       .  A
C301        H307   1.080       .  S
C302        C303   1.407       .  A
C303        C304   1.399       .  A
C303        H308   1.081       .  S
C304        C305   1.407       .  A
C304        H309   1.081       .  S
C305        C306   1.406       .  A
C306        H310   1.079       .  S
C311        C312   1.408       .  A
C311        C316   1.398       .  A
C311        H317   1.081       .  S
C312        C313   1.408       .  A
C313        C314   1.401       .  A
C313        H318   1.080       .  S
C314        C315   1.408       .  A
C314        H319   1.080       .  S
C315        C316   1.406       .  A
C316        H320   1.081       .  S
C321        H323   1.087       .  S
C321       C1202   1.342       .  D
C322        H324   1.086       .  S
C322       C1201   1.339   1_545  D
C325        H327   1.087       .  S
C325       C1206   1.343   1_554  D
C326        H768   1.086       .  S
C326       C1205   1.342   1_566  D
H328        C766   1.086   1_565  S
C329        C330   1.198       .  T
C331        C332   1.195       .  T
C333        H335   1.086       .  S
C333        C334   1.343       .  D
C334        H336   1.087       .  S
C337        H779   1.087       .  S
C337        C338   1.339   1_554  D
C338        H340   1.086       .  S
H339        C777   1.087       .  S
C341        C342   1.199       .  T
C343        C344   1.198       .  T
C345        H347   1.086       .  S
C345        C346   1.340   1_545  D
C346       H1228   1.087       .  S
H348       C1226   1.087       .  S
C349        C354   1.399       .  A
C349       C1230   1.408   1_545  A
C349        H355   1.082       .  S
C350        C351   1.409       .  A
C350       C1229   1.407       .  A
C351        C352   1.403       .  A
C351        H356   1.081       .  S
C352       C1233   1.408       .  A
C352        H357   1.079       .  S
C353        C354   1.406       .  A
C353       C1232   1.408   1_545  A
C354        H358   1.082       .  S
C359        C360   1.409       .  A
C359        C364   1.402       .  A
C359        H365   1.080       .  S
C360       C1241   1.407       .  A
C361        C362   1.400       .  A
C361       C1240   1.408   1_545  A
C361        H366   1.081       .  S
C362        C363   1.407   1_545  A
C362        H367   1.081       .  S
C363       C1244   1.408       .  A
C364       C1243   1.407       .  A
C364        H368   1.079       .  S
C369       H1691   1.087       .  S
C369        C370   1.340   1_565  D
C370        H372   1.087   1_556  S
H371       C1689   1.087       .  S
C373        C374   1.405       .  A
C373        C378   1.398       .  A
C373        H379   1.082       .  S
C374        C375   1.405       .  A
C375        C376   1.395       .  A
C375        H380   1.082       .  S
C376        C377   1.406       .  A
C376        H381   1.082       .  S
C377        C378   1.406       .  A
C378        H382   1.082       .  S
C383        C384   1.405       .  A
C383        C388   1.397       .  A
C383        H389   1.082       .  S
C384        C385   1.406       .  A
C385        C386   1.399       .  A
C385        H390   1.082       .  S
C386        C387   1.404       .  A
C386        H391   1.082       .  S
C387        C388   1.405       .  A
C388        H392   1.082       .  S
C393        H395   1.087       .  S
C393        C394   1.341       .  D
C394        H396   1.086       .  S
C397        C402   1.394       .  A
C397        C838   1.405       .  A
C397        H403   1.081       .  S
C398        C399   1.405   1_554  A
C398        C837   1.404       .  A
C399        C400   1.391       .  A
C399        H404   1.081       .  S
C400        C401   1.404       .  A
C400        H405   1.081       .  S
C401        C842   1.408   1_556  A
C402        C841   1.405       .  A
C402        H406   1.081       .  S
C407        C408   1.405   1_556  A
C407        C412   1.395       .  A
C407        H413   1.082       .  S
C408        C409   1.405       .  A
C409        C410   1.396       .  A
C409        H414   1.082       .  S
C410        C411   1.405       .  A
C410        H415   1.082       .  S
C411        C412   1.404   1_554  A
C412        H416   1.082       .  S
C417        C418   1.405       .  A
C417        C422   1.401       .  A
C417        H423   1.079       .  S
C418        C419   1.409       .  A
C419        C420   1.401       .  A
C419        H424   1.081       .  S
C420        C421   1.405       .  A
C420        H425   1.080       .  S
C421        C422   1.410       .  A
C422        H426   1.081       .  S
C427        C428   1.410       .  A
C427        C432   1.403       .  A
C427        H433   1.079       .  S
C428        C429   1.407       .  A
C429        C430   1.401       .  A
C429        H434   1.080       .  S
C430        C431   1.409       .  A
C430        H435   1.081       .  S
C431        C432   1.407       .  A
C432        H436   1.079       .  S
C437        H439   1.086       .  S
C437        C438   1.341   1_554  D
C438        N454   1.435       .  S
C438        H880   1.087       .  S
H440        C878   1.087       .  S
C441        C443   1.531       .  S
C441        C445   1.537       .  S
C441        C444   1.540       .  S
C441        C858   1.539       .  S
C442        C446   1.534       .  S
C442        C448   1.527       .  S
C442        C447   1.537       .  S
C442        C868   1.526       .  S
C443        C451   1.372       .  A
C444        C455   1.377       .  A
C445        C459   1.372       .  A
C446        C449   1.373       .  A
C447        C453   1.374       .  A
C448        C456   1.372       .  A
C449        N450   1.356       .  A
C449        H462   1.080       .  S
N450        C848   1.437       .  S
C451        H452   1.082       .  S
C453        H463   1.082       .  S
N454        C455   1.353       .  A
C455        H461   1.082       .  S
C456        N457   1.359       .  A
C456        H458   1.082       .  S
N457        C838   1.440       .  S
C459        H460   1.079       .  S
C464        C466   1.532       .  S
C464        C468   1.524       .  S
C464        C467   1.534       .  S
C464        C871   1.525       .  S
C465        C469   1.539       .  S
C465        C471   1.548       .  S
C465        C470   1.555       .  S
C465        C861   1.537       .  S
C466        C474   1.373       .  A
C466        C469   1.394       .  A
C467        C478   1.375       .  A
C467        C470   1.399       .  A
C468        C482   1.367       .  A
C468        C471   1.391       .  A
C469        C472   1.378       .  A
C470        C476   1.385       .  A
C471        C479   1.384       .  A
C472        N473   1.361       .  A
C472        H485   1.082       .  S
N473        C474   1.355       .  A
N473        C824   1.438       .  S
C474        H475   1.080       .  S
C476        N477   1.360       .  A
C476        H486   1.081       .  S
N477        C478   1.350       .  A
N477        C833   1.433       .  S
C478        H484   1.082       .  S
C479        N480   1.364       .  A
C479        H481   1.081       .  S
N480        C482   1.356       .  A
N480        C814   1.442       .  S
C482        H483   1.082       .  S
C487        C489   1.538       .  S
C487       C1371   1.529       .  S
C487        C490   1.540       .  S
C487        C790   1.528       .  S
C488        C492   1.537       .  S
C488       C1374   1.541       .  S
C488        C493   1.548       .  S
C488        C800   1.537       .  S
C489        C497   1.376       .  A
C490       C1381   1.376       .  A
C491       C1367   1.530       .  S
C491        C505   1.371       .  A
C492        C495   1.376       .  A
C493       C1379   1.382       .  A
C494       C1368   1.541   1_545  S
C494        C502   1.376       .  A
C495        N496   1.361       .  A
C495        H508   1.082       .  S
N496        C851   1.437       .  S
C497        H498   1.080       .  S
C499       C1373   1.386       .  A
C499        N500   1.359       .  A
C499        H509   1.081   1_565  S
N500        C809   1.431       .  S
C501       C1370   1.373       .  A
C501        H507   1.082       .  S
C502        N503   1.360       .  A
C502        H504   1.080       .  S
N503        C841   1.441       .  S
C505        H506   1.082       .  S
C510       C1392   1.538       .  S
C510        C514   1.548   1_565  S
C510       C1393   1.551       .  S
C510        C803   1.541       .  S
C511       C1395   1.534       .  S
C511        C517   1.525   1_565  S
C511       C1396   1.536       .  S
C511        C793   1.526   1_565  S
C512       C1390   1.536       .  S
C512        C520   1.376       .  A
C512        C515   1.394       .  A
C513       C1390   1.549       .  S
C513       C1404   1.384       .  A
C513        C516   1.400       .  A
C514        C528   1.383       .  A
C514        C517   1.392       .  A
C515       C1391   1.536       .  S
C515        C518   1.375       .  A
C516       C1391   1.538       .  S
C516       C1402   1.374       .  A
C517        C525   1.370       .  A
C518        N519   1.356       .  A
C518        H531   1.080       .  S
N519        C520   1.360       .  A
N519        C827   1.438       .  S
C520        H521   1.082       .  S
C522       C1396   1.376       .  A
C522        N523   1.352       .  A
C522        H532   1.082       .  S
N523        C524   1.359       .  A
N523        C786   1.435       .  S
C524       C1393   1.381       .  A
C524        H530   1.081   1_565  S
C525        N526   1.356       .  A
C525        H527   1.082       .  S
N526        C528   1.364       .  A
N526        C817   1.442       .  S
C528        H529   1.081       .  S
O533       Cu541   2.003       .  S
O533        C543   1.278       .  A
O534       Cu541   2.006       .  S
O534        C544   1.276       .  A
O535       Cu541   2.006       .  S
O535        C545   1.275       .  A
O536        C546   1.274       .  A
O537        C546   1.273       .  A
O538       Cu542   1.990       .  S
O538        C545   1.275       .  A
O539       Cu542   2.013       .  S
O539        C544   1.280       .  A
O540       Cu542   2.016       .  S
O540        C543   1.278       .  A
Cu541      Cu542   2.380       .  S
C543        C778   1.474       .  S
C544        C877   1.474       .  S
C545        C783   1.426       .  S
C546        C781   1.418       .  S
O547       Cu555   1.990       .  S
O547        C557   1.274       .  A
O548       Cu555   1.991       .  S
O548        C558   1.274       .  A
O549       Cu555   2.012       .  S
O549        C559   1.276       .  A
O550       Cu555   1.986       .  S
O550        C560   1.276       .  A
O551       Cu556   1.991       .  S
O551        C560   1.272       .  A
O552       Cu556   1.980       .  S
O552        C559   1.274       .  A
O553       Cu556   2.024       .  S
O553        C558   1.280       .  A
O554       Cu556   2.021       .  S
O554        C557   1.281       .  A
Cu555      Cu556   2.381       .  S
C557        C834   1.470       .  S
C558        C773   1.468       .  S
C559        C784   1.425       .  S
C560        C782   1.418       .  S
O561        C571   1.274   1_545  A
O562       Cu569   2.008       .  S
O562        C572   1.275       .  A
O563       Cu569   2.012   1_654  S
O564        C574   1.279       .  A
O565       Cu570   2.010       .  S
O565       C1454   1.277       .  A
O566       Cu570   2.008   1_655  S
O566       C1453   1.279       .  A
O567       C1452   1.274       .  A
O568       Cu570   2.003       .  S
O568       C1451   1.274       .  A
Cu569     Cu1010   2.381   1_545  S
Cu570     Cu1009   2.381       .  S
C571       O1448   1.275       .  A
C571        C772   1.420       .  S
C572       O1447   1.275       .  A
C572        C769   1.426       .  S
C573       O1446   1.278   1_545  A
C573        C810   1.476       .  S
C574       O1445   1.276   1_545  A
C574        C766   1.472       .  S
O575       Cu583   2.009       .  S
O575       C1465   1.277       .  A
O576       Cu583   2.005   1_655  S
O576       C1466   1.279       .  A
O577       Cu583   2.000       .  S
O577       C1467   1.274       .  A
O578       Cu583   1.983       .  S
O578       C1468   1.274       .  A
O579       Cu584   2.013       .  S
O579        C588   1.276       .  A
O580       Cu584   1.989       .  S
O580        C587   1.276   1_545  A
O581       Cu584   1.994   1_655  S
O581        C586   1.275       .  A
O582       Cu584   1.995       .  S
O582        C585   1.274       .  A
Cu583     Cu1464   2.381       .  S
Cu584     Cu1463   2.381   1_545  S
C585       O1455   1.280   1_545  A
C585        C762   1.468       .  S
C586       O1456   1.280   1_545  A
C586        C785   1.469       .  S
C587       O1457   1.273       .  A
C587        C771   1.421       .  S
C588       O1458   1.274       .  A
C588        C770   1.426       .  S
C589        C591   1.554       .  S
C589        C593   1.552       .  S
C589        C592   1.538       .  S
C589        C742   1.538       .  S
C590        C594   1.547       .  S
C590        C596   1.548       .  S
C590        C595   1.535       .  S
C590        C752   1.536       .  S
C591        C599   1.386       .  A
C592        C603   1.380       .  A
C593        C607   1.385       .  A
C594        C597   1.381       .  A
C595        C601   1.379       .  A
C596        C604   1.381       .  A
C597        N598   1.359       .  A
C597        H610   1.081       .  S
N598        C722   1.445       .  S
C599        H600   1.080       .  S
C601        N602   1.360       .  A
C601        H611   1.082       .  S
N602        C777   1.435       .  S
C603        H609   1.082       .  S
C604        N605   1.360       .  A
C604        H606   1.080       .  S
N605        C732   1.446       .  S
C607        H608   1.081       .  S
C612        C614   1.545       .  S
C612        C616   1.544       .  S
C612        C615   1.527       .  S
C612        C755   1.535       .  S
C613        C617   1.549       .  S
C613        C619   1.548       .  S
C613        C618   1.535       .  S
C613        C745   1.539       .  S
C614        C622   1.380       .  A
C614        C617   1.398       .  A
C615        C626   1.374       .  A
C615        C618   1.391       .  A
C616        C630   1.377       .  A
C616        C619   1.400       .  A
C617        C620   1.383       .  A
C618        C624   1.377       .  A
C619        C627   1.382       .  A
C620        N621   1.360       .  A
C620        H633   1.080       .  S
N621        C622   1.359       .  A
N621        C702   1.447       .  S
C622        H623   1.081       .  S
C624        N625   1.361       .  A
C624        H634   1.082       .  S
N625        C626   1.354       .  A
N625        C774   1.436       .  S
C626        H632   1.083       .  S
C627        N628   1.359       .  A
C627        H629   1.081       .  S
N628        C630   1.358       .  A
N628        C712   1.442       .  S
C630        H631   1.081       .  S
C635        C637   1.544       .  S
C635       C1519   1.543       .  S
C635        C638   1.529       .  S
C635        C692   1.534       .  S
C636        C640   1.529       .  S
C636       C1522   1.546       .  S
C636        C641   1.544       .  S
C636        C682   1.529       .  S
C637        C645   1.379       .  A
C638        C649   1.374       .  A
C639       C1515   1.546   1_545  S
C639        C653   1.381       .  A
C640        C643   1.375       .  A
C641        C647   1.382       .  A
C642       C1516   1.543   1_545  S
C642        C650   1.378       .  A
C643        H656   1.082       .  S
N644        C645   1.362       .  A
N644        C735   1.447       .  S
C645        H646   1.080       .  S
C647        H657   1.081       .  S
N648        C649   1.353       .  A
N648        C765   1.433       .  S
C649        H655   1.082       .  S
C650        H652   1.080       .  S
N651        C653   1.360       .  A
N651        C725   1.446       .  S
C653        H654   1.080       .  S
C658        C660   1.535       .  S
C658       C1542   1.548       .  S
C658        C661   1.544       .  S
C658        C685   1.531       .  S
C659        C663   1.545       .  S
C659       C1545   1.541       .  S
C659        C664   1.532       .  S
C659        C695   1.533       .  S
C660        C668   1.378       .  A
C660        C663   1.394       .  A
C661        C672   1.383       .  A
C661        C664   1.396       .  A
C662       C1538   1.548   1_545  S
C662        C676   1.382       .  A
C662        C665   1.397       .  A
C663        C666   1.379       .  A
C664        C670   1.374       .  A
C665       C1539   1.547   1_545  S
C665        C673   1.380       .  A
C666        N667   1.360       .  A
C666        H679   1.080       .  S
N667        C668   1.360       .  A
N667        C715   1.444       .  S
C668        H669   1.082       .  S
C670        N671   1.354       .  A
C670        H680   1.082       .  S
N671        C672   1.358       .  A
N671        C761   1.435       .  S
C672        H678   1.081       .  S
C673        N674   1.360       .  A
C673        H675   1.080       .  S
N674        C676   1.362       .  A
N674        C705   1.449       .  S
C676        H677   1.080       .  S
C681        C682   1.407       .  A
C681        C686   1.401       .  A
C681        H687   1.080       .  S
C682       C1563   1.408       .  A
C683       C1562   1.408   1_545  A
C683        C684   1.399       .  A
C683        H688   1.080       .  S
C684       C1565   1.406   1_545  A
C684        H689   1.080       .  S
C685       C1564   1.406       .  A
C685        C686   1.407       .  A
C686        H690   1.080       .  S
C691       C1572   1.407   1_545  A
C691        C696   1.402       .  A
C691        H697   1.081       .  S
C692       C1571   1.408       .  A
C692        C693   1.408       .  A
C693        C694   1.400       .  A
C693        H698   1.080       .  S
C694        C695   1.407       .  A
C694        H699   1.079       .  S
C695       C1576   1.408       .  A
C696       C1575   1.409   1_545  A
C696        H700   1.080       .  S
C701        C702   1.407       .  A
C701        C706   1.401       .  A
C701        H707   1.082       .  S
C702        C703   1.406       .  A
C703        C704   1.399       .  A
C703        H708   1.082       .  S
C704        C705   1.408       .  A
C704        H709   1.081       .  S
C705        C706   1.408       .  A
C706        H710   1.081       .  S
C711        C712   1.405       .  A
C711        C716   1.401       .  A
C711        H717   1.082       .  S
C712        C713   1.405       .  A
C713        C714   1.396       .  A
C713        H718   1.082       .  S
C714        C715   1.406       .  A
C714        H719   1.082       .  S
C715        C716   1.407       .  A
C716        H720   1.082       .  S
C721        C722   1.407       .  A
C721        C726   1.399       .  A
C721        H727   1.082       .  S
C722        C723   1.406       .  A
C723        C724   1.399       .  A
C723        H728   1.082       .  S
C724        C725   1.407       .  A
C724        H729   1.082       .  S
C725        C726   1.407       .  A
C726        H730   1.082       .  S
C731        C732   1.406       .  A
C731        C736   1.396       .  A
C731        H737   1.082       .  S
C732        C733   1.407       .  A
C733        C734   1.402       .  A
C733        H738   1.082       .  S
C734        C735   1.408       .  A
C734        H739   1.081       .  S
C735        C736   1.406       .  A
C741        C742   1.407       .  A
C741        C746   1.403       .  A
C741        H747   1.080       .  S
C742        C743   1.409       .  A
C743        C744   1.404       .  A
C743        H748   1.081       .  S
C744        C745   1.408       .  A
C744        H749   1.081       .  S
C745        C746   1.409       .  A
C746        H750   1.079       .  S
C751        C752   1.408       .  A
C751        C756   1.401       .  A
C751        H757   1.081       .  S
C752        C753   1.407       .  A
C753        C754   1.402       .  A
C753        H758   1.079       .  S
C754        C755   1.408       .  A
C754        H759   1.080       .  S
C755        C756   1.409       .  A
C756        H760   1.081       .  S
C761        H763   1.087       .  S
C761       C1642   1.342       .  D
C762        H764   1.086       .  S
C762       C1641   1.337   1_545  D
C765        H767   1.087       .  S
C765       C1646   1.341       .  D
C766       C1645   1.344       .  D
C769        C770   1.200       .  T
C771        C772   1.197       .  T
C773        H775   1.086       .  S
C773        C774   1.338       .  D
C774        H776   1.087       .  S
C777        C778   1.342       .  D
C778        H780   1.086       .  S
C781        C782   1.195       .  T
C783        C784   1.200       .  T
C785        H787   1.086       .  S
C785        C786   1.338   1_545  D
C786       H1668   1.087       .  S
H788       C1666   1.087       .  S
C789       C1670   1.407       .  A
C789        C794   1.398       .  A
C789        H795   1.082       .  S
C790       C1669   1.407       .  A
C790        C791   1.407       .  A
C791        C792   1.400       .  A
C791        H796   1.080       .  S
C792       C1673   1.407       .  A
C792        H797   1.080       .  S
C793       C1672   1.407   1_545  A
C793        C794   1.407       .  A
C794        H798   1.082       .  S
C799        C800   1.409       .  A
C799        C804   1.403       .  A
C799        H805   1.079       .  S
C800       C1681   1.407       .  A
C801       C1680   1.409   1_545  A
C801        C802   1.402       .  A
C801        H806   1.081       .  S
C802        C803   1.407   1_545  A
C802        H807   1.080       .  S
C803       C1684   1.410       .  A
C804       C1683   1.408       .  A
C804        H808   1.079       .  S
C809       H1251   1.087       .  S
C809        C810   1.341   1_565  D
C810        H812   1.087       .  S
H811       C1249   1.087       .  S
C813        C814   1.408       .  A
C813        C818   1.395       .  A
C813        H819   1.081       .  S
C814        C815   1.404       .  A
C815        C816   1.398       .  A
C815        H820   1.082       .  S
C816        C817   1.409       .  A
C816        H821   1.082       .  S
C817        C818   1.403       .  A
C818        H822   1.082       .  S
C823        C824   1.402       .  A
C823        C828   1.396       .  A
C823        H829   1.082       .  S
C824        C825   1.407       .  A
C825        C826   1.395       .  A
C825        H830   1.082       .  S
C826        C827   1.402       .  A
C826        H831   1.082       .  S
C827        C828   1.406       .  A
C828        H832   1.082       .  S
C833        H835   1.087       .  S
C833        C834   1.337       .  D
C834        H836   1.087       .  S
C837        C842   1.398       .  A
C837        H843   1.082       .  S
C838        C839   1.405       .  A
C839        C840   1.394       .  A
C839        H844   1.081       .  S
C840        C841   1.406       .  A
C840        H845   1.081       .  S
C842        H846   1.081       .  S
C847        C848   1.402       .  A
C847        C852   1.396       .  A
C847        H853   1.082       .  S
C848        C849   1.406       .  A
C849        C850   1.394       .  A
C849        H854   1.082       .  S
C850        C851   1.402       .  A
C850        H855   1.082       .  S
C851        C852   1.407       .  A
C852        H856   1.082       .  S
C857        C858   1.408       .  A
C857        C862   1.403       .  A
C857        H863   1.081       .  S
C858        C859   1.408       .  A
C859        C860   1.402       .  A
C859        H864   1.079       .  S
C860        C861   1.408       .  A
C860        H865   1.081       .  S
C861        C862   1.409       .  A
C862        H866   1.078       .  S
C867        C868   1.406       .  A
C867        C872   1.395       .  A
C867        H873   1.081       .  S
C868        C869   1.406       .  A
C869        C870   1.398       .  A
C869        H874   1.080       .  S
C870        C871   1.407       .  A
C870        H875   1.080       .  S
C871        C872   1.406       .  A
C872        H876   1.082       .  S
C877        H879   1.086       .  S
C877        C878   1.340       .  D
C881        C883   1.532       .  S
C881        C885   1.540       .  S
C881        C884   1.541       .  S
C881       C1298   1.529       .  S
C882        C886   1.538       .  S
C882        C888   1.531       .  S
C882        C887   1.543       .  S
C882       C1308   1.534       .  S
C883        C891   1.373       .  A
C883       C1326   1.390       .  A
C884        C895   1.380       .  A
C884       C1327   1.400       .  A
C885        C899   1.379       .  A
C885       C1328   1.398       .  A
C886       C1323   1.396   1_554  A
C886        C889   1.375       .  A
C887       C1324   1.398   1_554  A
C887        C893   1.380       .  A
C888       C1325   1.395   1_554  A
C888        C896   1.373       .  A
C889        N890   1.359   1_554  A
C889        H902   1.081       .  S
N890       C1331   1.361       .  A
N890       C1288   1.441       .  S
C891       N1330   1.361       .  A
C891        H892   1.082       .  S
C893       N1334   1.356   1_554  A
C893        H903   1.081       .  S
N894       C1333   1.358       .  A
N894        C895   1.355       .  A
N894       C1758   1.438       .  S
C895        H901   1.082       .  S
C896        N897   1.357   1_554  A
C896        H898   1.082       .  S
N897       C1339   1.359       .  A
N897       C1278   1.437       .  S
C899       N1337   1.357       .  A
C899        H900   1.081       .  S
C904        C906   1.539       .  S
C904        C908   1.539       .  S
C904        C907   1.553       .  S
C904       C1311   1.534       .  S
C905        C909   1.527       .  S
C905        C911   1.535       .  S
C905        C910   1.537       .  S
C905       C1301   1.532       .  S
C906        C914   1.376       .  A
C906        C909   1.392       .  A
C907        C918   1.387       .  A
C907        C910   1.401       .  A
C908        C922   1.379       .  A
C908        C911   1.395       .  A
C909        C912   1.370       .  A
C910        C916   1.373       .  A
C911        C919   1.373       .  A
C912        N913   1.359       .  A
C912        H925   1.082       .  S
N913        C914   1.359       .  A
N913       C1264   1.437       .  S
C914        H915   1.081       .  S
C916        N917   1.349       .  A
C916        H926   1.082       .  S
N917        C918   1.359       .  A
N917       C1273   1.432       .  S
C918        H924   1.081       .  S
C919        N920   1.356       .  A
C919        H921   1.080       .  S
N920        C922   1.361       .  A
N920       C1254   1.439       .  S
C922        H923   1.082       .  S
C927        C929   1.538       .  S
C927        C930   1.536       .  S
C927       C1230   1.533       .  S
C928        C932   1.537   1_545  S
C928        C933   1.551   1_545  S
C928       C1240   1.532   1_545  S
C929        C937   1.374       .  A
C929       C1372   1.396       .  A
C930       C1373   1.401       .  A
C931        C945   1.370       .  A
C931       C1374   1.393       .  A
C932       C1369   1.394   1_554  A
C932        C935   1.377       .  A
C933       C1370   1.399   1_554  A
C934       C1371   1.393   1_554  A
C934        C942   1.380       .  A
C935        N936   1.360   1_554  A
C935        H948   1.082       .  S
N936       C1377   1.356       .  A
N936       C1291   1.439       .  S
C937       N1376   1.358       .  A
C937        H938   1.080       .  S
C939        N940   1.359   1_554  A
C939        H949   1.081       .  S
N940       C1381   1.353       .  A
N940       C1249   1.436       .  S
C941       N1380   1.353       .  A
C941        H947   1.082       .  S
C942        N943   1.360       .  A
C942        H944   1.081       .  S
N943       C1385   1.357   1_554  A
N943       C1281   1.437   1_554  S
C945       N1383   1.358       .  A
C945        H946   1.082       .  S
C950        C954   1.538       .  S
C950       C1243   1.535       .  S
C951        C957   1.533       .  S
C951       C1233   1.535       .  S
C952        C960   1.375       .  A
C952        C955   1.394       .  A
C953        C956   1.400       .  A
C954        C968   1.376       .  A
C954        C957   1.392       .  A
C955        C958   1.373       .  A
C957        C965   1.375       .  A
C958        N959   1.357       .  A
C958        H971   1.080       .  S
N959        C960   1.359       .  A
N959       C1267   1.437       .  S
C960        H961   1.082       .  S
C962        N963   1.351       .  A
C962        H972   1.082       .  S
N963        C964   1.358       .  A
N963       C1226   1.434       .  S
C964        H970   1.081       .  S
C965        N966   1.361       .  A
C965        H967   1.082       .  S
N966        C968   1.358       .  A
N966       C1257   1.440       .  S
C968        H969   1.081       .  S
O973       Cu981   2.001       .  S
O973        C983   1.275       .  A
O974       Cu981   1.997   1_554  S
O974        C984   1.277       .  A
O975       Cu981   2.003   1_554  S
O975        C985   1.274       .  A
O976      Cu1421   1.984       .  S
O976        C986   1.274       .  A
O977      Cu1422   2.013       .  S
O977        C986   1.276       .  A
O978       Cu982   1.982       .  S
O978        C985   1.274       .  A
O979       Cu982   2.014       .  S
O979        C984   1.278       .  A
O980       Cu982   2.010       .  S
O980        C983   1.280   1_554  A
Cu981      O1416   1.978       .  S
Cu981      Cu982   2.382   1_556  S
Cu982      O1417   1.991   1_554  S
C983       C1218   1.471       .  S
C984       C1317   1.471       .  S
C985       C1223   1.421       .  S
C986       C1221   1.426       .  S
O987       Cu995   2.006       .  S
O987        C997   1.279       .  A
O988       Cu995   2.007       .  S
O988        C998   1.276       .  A
O989       Cu995   1.999       .  S
O989        C999   1.274       .  A
O990       Cu995   1.989       .  S
O990       C1000   1.275       .  A
O991       Cu996   2.009       .  S
O991       C1000   1.275       .  A
O992       Cu996   1.986       .  S
O992        C999   1.275       .  A
O993       Cu996   2.005       .  S
O993        C998   1.278       .  A
O994       Cu996   2.012       .  S
O994        C997   1.277       .  A
Cu995      Cu996   2.380       .  S
C997       C1274   1.476       .  S
C998       C1213   1.470       .  S
C999       C1224   1.421       .  S
C1000      C1222   1.427       .  S
O1001     Cu1449   1.985       .  S
O1001      C1011   1.275       .  A
O1002     Cu1009   2.002       .  S
O1002      C1012   1.274       .  A
O1003     Cu1009   2.006   1_655  S
O1003      C1453   1.276       .  A
O1004     Cu1449   2.009       .  S
O1004      C1014   1.278   1_554  A
O1005     Cu1010   2.003       .  S
O1006     Cu1010   2.001   1_655  S
O1007     Cu1450   1.992   1_545  S
O1008     Cu1010   1.999   1_554  S
Cu1009     O1441   1.981       .  S
Cu1009     O1444   2.005       .  S
Cu1010     O1447   1.988   1_565  S
C1011      C1212   1.421       .  S
C1012      C1209   1.422       .  S
C1013      O1443   1.277       .  A
C1013      C1250   1.473       .  S
C1014      C1206   1.475       .  S
O1015     Cu1023   2.011       .  S
O1016     Cu1023   2.015   1_655  S
O1017     Cu1023   1.991       .  S
O1018     Cu1023   1.974   1_545  S
O1019     Cu1024   2.004       .  S
O1019      C1028   1.275       .  A
O1020     Cu1024   1.985       .  S
O1020      C1027   1.275       .  A
O1021     Cu1024   2.011   1_655  S
O1021      C1026   1.277       .  A
O1022     Cu1024   2.008       .  S
O1022      C1025   1.278       .  A
C1025      C1202   1.474       .  S
C1026      C1225   1.474       .  S
C1027      C1211   1.421       .  S
C1028      C1210   1.422       .  S
C1029      C1031   1.539       .  S
C1029      C1033   1.543       .  S
C1029      C1032   1.526       .  S
C1029      C1182   1.529       .  S
C1030      C1034   1.542       .  S
C1030      C1036   1.539       .  S
C1030      C1035   1.523       .  S
C1030      C1192   1.531       .  S
C1031      C1039   1.377       .  A
C1031      C1474   1.396       .  A
C1032      C1043   1.373       .  A
C1032      C1475   1.391       .  A
C1033      C1047   1.380       .  A
C1033      C1476   1.399       .  A
C1034      C1471   1.397   1_554  A
C1034      C1037   1.378       .  A
C1035      C1472   1.392   1_554  A
C1035      C1041   1.369       .  A
C1036      C1473   1.399   1_554  A
C1036      C1044   1.375       .  A
C1037      N1038   1.358       .  A
C1037      H1050   1.081       .  S
N1038      C1479   1.359   1_554  A
N1038      C1162   1.442       .  S
C1039      N1478   1.357       .  A
C1039      H1040   1.081       .  S
C1041      N1042   1.351       .  A
C1041      H1051   1.083       .  S
N1042      C1483   1.361   1_554  A
N1042      C1217   1.430       .  S
C1043      N1482   1.354       .  A
C1043      H1049   1.083       .  S
C1044      N1045   1.357   1_554  A
C1044      H1046   1.081       .  S
N1045      C1487   1.358       .  A
N1045      C1172   1.438       .  S
C1047      N1485   1.357       .  A
C1047      H1048   1.081       .  S
C1052      C1054   1.545       .  S
C1052      C1056   1.541       .  S
C1052      C1055   1.529       .  S
C1052      C1195   1.532       .  S
C1053      C1057   1.544       .  S
C1053      C1059   1.544       .  S
C1053      C1058   1.532       .  S
C1053      C1185   1.530       .  S
C1054      C1062   1.379       .  A
C1054      C1057   1.398       .  A
C1055      C1066   1.373       .  A
C1055      C1058   1.392       .  A
C1056      C1070   1.377       .  A
C1056      C1059   1.397       .  A
C1057      C1060   1.380       .  A
C1058      C1064   1.376       .  A
C1059      C1067   1.380       .  A
C1060      N1061   1.358       .  A
C1060      H1073   1.081       .  S
N1061      C1062   1.358       .  A
N1061      C1142   1.440       .  S
C1062      H1063   1.081       .  S
C1064      N1065   1.359       .  A
C1064      H1074   1.082       .  S
N1065      C1066   1.356       .  A
N1065      C1214   1.434       .  S
C1066      H1072   1.083       .  S
C1067      N1068   1.357       .  A
C1067      H1069   1.081       .  S
N1068      C1070   1.356       .  A
N1068      C1152   1.438       .  S
C1070      H1071   1.081       .  S
C1075      C1077   1.548       .  S
C1075      C1078   1.535       .  S
C1075      C1132   1.536       .  S
C1076      C1080   1.531       .  S
C1076      C1081   1.540       .  S
C1076      C1122   1.531       .  S
C1077      C1085   1.381       .  A
C1077      C1520   1.393   1_554  A
C1078      C1089   1.377   1_565  A
C1078      C1521   1.396   1_554  A
C1079      C1093   1.379       .  A
C1079      C1522   1.394   1_554  A
C1080      C1517   1.393       .  A
C1080      C1083   1.377       .  A
C1081      C1518   1.394       .  A
C1081      C1087   1.378   1_565  A
C1082      C1519   1.397       .  A
C1082      C1090   1.383       .  A
C1083      N1524   1.359       .  A
C1083      H1096   1.082       .  S
N1084      C1523   1.357       .  A
N1084      C1085   1.360   1_556  A
N1084      C1175   1.439       .  S
C1085      H1086   1.080       .  S
C1087      N1528   1.358       .  A
C1087      H1097   1.082       .  S
N1088      C1527   1.357   1_554  A
N1088      C1089   1.356       .  A
N1088      C1205   1.435       .  S
C1089      H1095   1.082       .  S
C1090      N1531   1.361       .  A
C1090      H1092   1.081       .  S
N1091      C1530   1.361   1_554  A
N1091      C1093   1.360       .  A
N1091      C1165   1.447       .  S
C1093      H1094   1.080       .  S
C1098      C1100   1.528       .  S
C1098      C1101   1.540       .  S
C1098      C1125   1.533       .  S
C1099      C1103   1.546       .  S
C1099      C1104   1.534       .  S
C1099      C1135   1.536       .  S
C1100      C1108   1.372       .  A
C1100      C1103   1.395       .  A
C1101      C1112   1.378       .  A
C1101      C1104   1.396       .  A
C1102      C1116   1.382       .  A
C1102      C1105   1.395       .  A
C1103      C1106   1.380       .  A
C1104      C1110   1.376       .  A
C1105      C1113   1.378       .  A
C1106      N1107   1.361       .  A
C1106      H1119   1.081       .  S
N1107      C1108   1.357       .  A
N1107      C1155   1.439       .  S
C1108      H1109   1.082       .  S
C1110      N1111   1.358       .  A
C1110      H1120   1.082       .  S
N1111      C1112   1.353       .  A
N1111      C1201   1.433       .  S
C1112      H1118   1.081       .  S
C1113      N1114   1.358       .  A
C1113      H1115   1.080       .  S
N1114      C1116   1.360       .  A
N1114      C1145   1.443       .  S
C1116      H1117   1.081       .  S
C1121      C1122   1.407       .  A
C1121      C1126   1.399       .  A
C1121      H1127   1.082       .  S
C1123      C1124   1.400       .  A
C1123      H1128   1.081       .  S
C1124      H1129   1.081       .  S
C1125      C1126   1.407       .  A
C1126      H1130   1.080       .  S
C1131      C1136   1.400       .  A
C1131      H1137   1.081       .  S
C1132      C1133   1.409       .  A
C1133      C1134   1.401       .  A
C1133      H1138   1.079       .  S
C1134      C1135   1.407       .  A
C1134      H1139   1.080       .  S
C1136      H1140   1.080       .  S
C1141      C1142   1.405       .  A
C1141      C1146   1.399       .  A
C1141      H1147   1.082       .  S
C1142      C1143   1.404       .  A
C1143      C1144   1.396       .  A
C1143      H1148   1.082       .  S
C1144      C1145   1.406       .  A
C1144      H1149   1.082       .  S
C1145      C1146   1.407       .  A
C1146      H1150   1.082       .  S
C1151      C1152   1.404       .  A
C1151      C1156   1.397       .  A
C1151      H1157   1.082       .  S
C1152      C1153   1.405       .  A
C1153      C1154   1.395       .  A
C1153      H1158   1.082       .  S
C1154      C1155   1.404       .  A
C1154      H1159   1.082       .  S
C1155      C1156   1.406       .  A
C1156      H1160   1.082       .  S
C1161      C1162   1.405       .  A
C1161      C1166   1.397       .  A
C1161      H1167   1.082       .  S
C1162      C1163   1.405   1_554  A
C1163      C1164   1.398       .  A
C1163      H1168   1.082       .  S
C1164      C1165   1.408   1_556  A
C1164      H1169   1.081       .  S
C1165      C1166   1.407       .  A
C1166      H1170   1.081       .  S
C1171      C1172   1.405   1_554  A
C1171      C1176   1.394       .  A
C1171      H1177   1.082       .  S
C1172      C1173   1.404       .  A
C1173      C1174   1.399       .  A
C1173      H1178   1.082       .  S
C1174      C1175   1.407       .  A
C1174      H1179   1.082       .  S
C1175      C1176   1.403   1_556  A
C1176      H1620   1.082       .  S
H1180      C1616   1.082       .  S
C1181      C1182   1.407       .  A
C1181      C1186   1.400       .  A
C1181      H1187   1.081       .  S
C1182      C1183   1.407       .  A
C1183      C1184   1.398       .  A
C1183      H1188   1.081       .  S
C1184      C1185   1.407       .  A
C1184      H1189   1.081       .  S
C1185      C1186   1.407       .  A
C1186      H1190   1.080       .  S
C1191      C1192   1.408       .  A
C1191      C1196   1.399       .  A
C1191      H1197   1.080       .  S
C1192      C1193   1.407       .  A
C1193      C1194   1.401       .  A
C1193      H1198   1.081       .  S
C1194      C1195   1.408       .  A
C1194      H1199   1.080       .  S
C1195      C1196   1.406       .  A
C1196      H1200   1.081       .  S
C1201      H1203   1.087       .  S
C1202      H1204   1.086       .  S
C1205      H1207   1.087       .  S
C1206      H1648   1.086       .  S
H1208      C1646   1.086       .  S
C1209      C1210   1.198       .  T
C1211      C1212   1.197       .  T
C1213      H1215   1.086       .  S
C1213      C1214   1.341       .  D
C1214      H1216   1.087       .  S
C1217      H1659   1.087       .  S
C1217      C1218   1.337   1_554  D
C1218      H1220   1.087       .  S
H1219      C1657   1.087       .  S
C1221      C1222   1.201       .  T
C1223      C1224   1.197       .  T
C1225      H1227   1.086       .  S
C1225      C1226   1.341       .  D
C1229      C1234   1.400       .  A
C1229      H1235   1.081       .  S
C1230      C1231   1.407       .  A
C1231      C1232   1.401       .  A
C1231      H1236   1.079       .  S
C1232      H1237   1.079       .  S
C1233      C1234   1.408       .  A
C1234      H1238   1.082       .  S
C1239      C1240   1.407       .  A
C1239      C1244   1.401       .  A
C1239      H1245   1.079       .  S
C1241      C1242   1.400       .  A
C1241      H1246   1.080       .  S
C1242      C1243   1.408       .  A
C1242      H1247   1.081       .  S
C1244      H1248   1.079       .  S
C1249      C1250   1.341   1_556  D
C1250      H1252   1.086       .  S
C1253      C1254   1.403       .  A
C1253      C1258   1.397       .  A
C1253      H1259   1.082       .  S
C1254      C1255   1.406       .  A
C1255      C1256   1.394       .  A
C1255      H1260   1.082       .  S
C1256      C1257   1.404       .  A
C1256      H1261   1.082       .  S
C1257      C1258   1.408       .  A
C1258      H1262   1.082       .  S
C1263      C1264   1.403       .  A
C1263      C1268   1.391       .  A
C1263      H1269   1.082       .  S
C1264      C1265   1.406       .  A
C1265      C1266   1.396       .  A
C1265      H1270   1.082       .  S
C1266      C1267   1.404       .  A
C1266      H1271   1.082       .  S
C1267      C1268   1.405       .  A
C1268      H1272   1.082       .  S
C1273      H1275   1.087       .  S
C1273      C1274   1.340       .  D
C1274      H1276   1.087       .  S
C1277      C1718   1.404       .  A
C1277      C1282   1.394       .  A
C1277      H1283   1.082       .  S
C1278      C1717   1.404   1_556  A
C1278      C1279   1.404       .  A
C1279      C1280   1.396       .  A
C1279      H1284   1.082       .  S
C1280      C1281   1.405       .  A
C1280      H1285   1.082       .  S
C1281      C1722   1.404   1_556  A
C1282      C1721   1.405       .  A
C1282      H1286   1.082       .  S
C1287      C1288   1.404       .  A
C1287      C1292   1.396       .  A
C1287      H1293   1.082       .  S
C1288      C1289   1.407   1_556  A
C1289      C1290   1.396       .  A
C1289      H1294   1.082       .  S
C1290      C1291   1.403   1_554  A
C1290      H1295   1.082       .  S
C1291      C1292   1.407       .  A
C1292      H1296   1.082       .  S
C1297      C1298   1.406       .  A
C1297      C1302   1.399       .  A
C1297      H1303   1.082       .  S
C1298      C1299   1.407       .  A
C1299      C1300   1.399       .  A
C1299      H1304   1.079       .  S
C1300      C1301   1.407       .  A
C1300      H1305   1.080       .  S
C1301      C1302   1.408       .  A
C1302      H1306   1.081       .  S
C1307      C1308   1.409       .  A
C1307      C1312   1.401       .  A
C1307      H1313   1.080       .  S
C1308      C1309   1.407       .  A
C1309      C1310   1.401       .  A
C1309      H1314   1.081       .  S
C1310      C1311   1.409       .  A
C1310      H1315   1.081       .  S
C1311      C1312   1.405       .  A
C1312      H1316   1.079       .  S
C1317      H1319   1.086       .  S
C1317      C1318   1.343   1_554  D
C1318      N1334   1.434       .  S
C1318      H1760   1.087       .  S
H1320      C1758   1.087       .  S
C1321      C1323   1.537       .  S
C1321      C1325   1.542       .  S
C1321      C1324   1.543       .  S
C1321      C1738   1.537       .  S
C1322      C1326   1.537       .  S
C1322      C1328   1.530       .  S
C1322      C1327   1.548       .  S
C1322      C1748   1.532       .  S
C1323      C1331   1.376       .  A
C1324      C1335   1.378       .  A
C1325      C1339   1.379       .  A
C1326      C1329   1.377       .  A
C1327      C1333   1.378       .  A
C1328      C1336   1.372       .  A
C1329      N1330   1.360       .  A
C1329      H1342   1.081       .  S
N1330      C1728   1.442       .  S
C1331      H1332   1.082       .  S
C1333      H1343   1.080       .  S
N1334      C1335   1.354       .  A
C1335      H1341   1.082       .  S
C1336      N1337   1.354       .  A
C1336      H1338   1.083       .  S
N1337      C1718   1.435       .  S
C1339      H1340   1.081       .  S
C1344      C1346   1.537       .  S
C1344      C1348   1.529       .  S
C1344      C1347   1.537       .  S
C1344      C1751   1.531       .  S
C1345      C1349   1.538       .  S
C1345      C1351   1.541       .  S
C1345      C1350   1.551       .  S
C1345      C1741   1.538       .  S
C1346      C1354   1.375       .  A
C1346      C1349   1.397       .  A
C1347      C1358   1.377       .  A
C1347      C1350   1.399       .  A
C1348      C1362   1.371       .  A
C1348      C1351   1.393       .  A
C1349      C1352   1.378       .  A
C1350      C1356   1.383       .  A
C1351      C1359   1.378       .  A
C1352      N1353   1.359       .  A
C1352      H1365   1.082       .  S
N1353      C1354   1.356       .  A
N1353      C1704   1.439       .  S
C1354      H1355   1.080       .  S
C1356      N1357   1.360       .  A
C1356      H1366   1.081       .  S
N1357      C1358   1.352       .  A
N1357      C1713   1.437       .  S
C1358      H1364   1.082       .  S
C1359      N1360   1.359       .  A
C1359      H1361   1.081       .  S
N1360      C1362   1.358       .  A
N1360      C1694   1.437       .  S
C1362      H1363   1.082       .  S
C1367      C1369   1.536   1_545  S
C1367      C1370   1.535   1_545  S
C1367      C1670   1.529       .  S
C1368      C1372   1.539       .  S
C1368      C1373   1.552       .  S
C1368      C1680   1.539       .  S
C1369      C1377   1.376       .  A
C1371      C1385   1.372       .  A
C1372      C1375   1.378       .  A
C1374      C1382   1.377       .  A
C1375      N1376   1.361       .  A
C1375      H1388   1.082       .  S
N1376      C1731   1.440       .  S
C1377      H1378   1.080       .  S
C1379      N1380   1.358       .  A
C1379      H1389   1.081       .  S
N1380      C1689   1.435       .  S
C1381      H1387   1.082       .  S
C1382      N1383   1.359       .  A
C1382      H1384   1.081       .  S
N1383      C1721   1.437       .  S
C1385      H1386   1.082       .  S
C1390      C1394   1.541       .  S
C1390      C1683   1.534       .  S
C1391      C1397   1.529       .  S
C1391      C1673   1.530       .  S
C1392      C1400   1.375       .  A
C1392      C1395   1.395       .  A
C1393      C1396   1.399       .  A
C1394      C1408   1.377       .  A
C1394      C1397   1.393       .  A
C1395      C1398   1.374       .  A
C1397      C1405   1.373       .  A
C1398      N1399   1.357       .  A
C1398      H1411   1.081       .  S
N1399      C1400   1.361       .  A
N1399      C1707   1.438       .  S
C1400      H1401   1.082       .  S
C1402      N1403   1.351       .  A
C1402      H1412   1.082       .  S
N1403      C1404   1.359       .  A
N1403      C1666   1.433       .  S
C1404      H1410   1.081       .  S
C1405      N1406   1.358       .  A
C1405      H1407   1.082       .  S
N1406      C1408   1.359       .  A
N1406      C1697   1.438       .  S
C1408      H1409   1.081       .  S
O1413     Cu1421   2.023       .  S
O1413      C1423   1.281       .  A
O1414     Cu1421   2.025       .  S
O1414      C1424   1.280       .  A
O1415     Cu1421   2.001       .  S
O1415      C1425   1.273       .  A
O1416      C1426   1.274       .  A
O1417      C1426   1.272       .  A
O1418     Cu1422   1.991       .  S
O1418      C1425   1.276       .  A
O1419     Cu1422   1.988       .  S
O1419      C1424   1.274       .  A
O1420     Cu1422   1.990       .  S
O1420      C1423   1.274       .  A
Cu1421    Cu1422   2.381       .  S
C1423      C1658   1.469       .  S
C1424      C1757   1.467       .  S
C1425      C1663   1.424       .  S
C1426      C1661   1.415       .  S
O1427     Cu1435   1.992       .  S
O1427      C1437   1.274       .  A
O1428     Cu1435   1.993       .  S
O1428      C1438   1.274       .  A
O1429     Cu1435   2.011       .  S
O1429      C1439   1.276       .  A
O1430     Cu1435   1.985       .  S
O1430      C1440   1.276       .  A
O1431     Cu1436   1.987       .  S
O1431      C1440   1.271       .  A
O1432     Cu1436   1.975       .  S
O1432      C1439   1.273       .  A
O1433     Cu1436   2.025       .  S
O1433      C1438   1.281       .  A
O1434     Cu1436   2.026       .  S
O1434      C1437   1.281       .  A
Cu1435    Cu1436   2.381       .  S
C1437      C1714   1.471       .  S
C1438      C1653   1.470       .  S
C1439      C1664   1.422       .  S
C1440      C1662   1.416       .  S
O1441      C1451   1.274       .  A
O1442     Cu1449   2.006   1_556  S
O1442      C1452   1.275       .  A
O1443     Cu1449   2.009   1_655  S
O1444      C1454   1.278       .  A
O1445     Cu1450   2.005       .  S
O1446     Cu1450   2.001   1_655  S
O1448     Cu1450   2.003       .  S
C1451      C1652   1.421       .  S
C1452      C1649   1.423       .  S
C1453      C1690   1.470       .  S
C1454      C1646   1.471       .  S
O1455     Cu1463   2.016       .  S
O1456     Cu1463   2.018   1_655  S
O1457     Cu1463   1.998       .  S
O1458     Cu1463   1.982   1_545  S
O1459     Cu1464   2.006       .  S
O1459      C1468   1.275       .  A
O1460     Cu1464   1.986       .  S
O1460      C1467   1.275       .  A
O1461     Cu1464   2.010   1_655  S
O1461      C1466   1.277       .  A
O1462     Cu1464   2.009       .  S
O1462      C1465   1.278       .  A
C1465      C1642   1.473       .  S
C1466      C1665   1.472       .  S
C1467      C1651   1.421       .  S
C1468      C1650   1.423       .  S
C1469      C1471   1.546       .  S
C1469      C1473   1.548       .  S
C1469      C1472   1.536       .  S
C1469      C1622   1.535       .  S
C1470      C1474   1.547       .  S
C1470      C1476   1.548       .  S
C1470      C1475   1.535       .  S
C1470      C1632   1.535       .  S
C1471      C1479   1.381       .  A
C1472      C1483   1.380       .  A
C1473      C1487   1.381       .  A
C1474      C1477   1.380       .  A
C1475      C1481   1.378       .  A
C1476      C1484   1.382       .  A
C1477      N1478   1.360       .  A
C1477      H1490   1.081       .  S
N1478      C1602   1.442       .  S
C1479      H1480   1.080       .  S
C1481      N1482   1.361       .  A
C1481      H1491   1.083       .  S
N1482      C1657   1.434       .  S
C1483      H1489   1.082       .  S
C1484      N1485   1.359       .  A
C1484      H1486   1.081       .  S
N1485      C1612   1.442       .  S
C1487      H1488   1.081       .  S
C1492      C1494   1.546       .  S
C1492      C1496   1.543       .  S
C1492      C1495   1.529       .  S
C1492      C1635   1.535       .  S
C1493      C1497   1.548       .  S
C1493      C1499   1.548       .  S
C1493      C1498   1.533       .  S
C1493      C1625   1.536       .  S
C1494      C1502   1.382       .  A
C1494      C1497   1.399       .  A
C1495      C1506   1.374       .  A
C1495      C1498   1.391       .  A
C1496      C1510   1.377       .  A
C1496      C1499   1.396       .  A
C1497      C1500   1.381       .  A
C1498      C1504   1.377       .  A
C1499      C1507   1.382       .  A
C1500      N1501   1.359       .  A
C1500      H1513   1.080       .  S
N1501      C1502   1.359       .  A
N1501      C1582   1.445       .  S
C1502      H1503   1.081       .  S
C1504      N1505   1.360       .  A
C1504      H1514   1.082       .  S
N1505      C1506   1.355       .  A
N1505      C1654   1.435       .  S
C1506      H1512   1.083       .  S
C1507      N1508   1.362       .  A
C1507      H1509   1.080       .  S
N1508      C1510   1.360       .  A
N1508      C1592   1.448       .  S
C1510      H1511   1.080       .  S
C1515      C1517   1.546       .  S
C1515      C1518   1.536       .  S
C1515      C1572   1.535       .  S
C1516      C1520   1.527       .  S
C1516      C1521   1.538       .  S
C1516      C1562   1.529       .  S
C1517      C1525   1.380       .  A
C1518      C1529   1.378   1_565  A
C1519      C1533   1.377       .  A
C1520      C1523   1.374       .  A
C1521      C1527   1.377   1_565  A
C1522      C1530   1.379       .  A
C1523      H1536   1.082       .  S
N1524      C1525   1.360       .  A
N1524      C1615   1.442       .  S
C1525      H1526   1.080       .  S
C1527      H1537   1.082       .  S
N1528      C1529   1.358       .  A
N1528      C1645   1.439       .  S
C1529      H1535   1.082       .  S
C1530      H1532   1.080       .  S
N1531      C1533   1.359       .  A
N1531      C1605   1.445       .  S
C1533      H1534   1.080       .  S
C1538      C1540   1.531       .  S
C1538      C1541   1.540       .  S
C1538      C1565   1.530       .  S
C1539      C1543   1.549       .  S
C1539      C1544   1.533       .  S
C1539      C1575   1.536       .  S
C1540      C1548   1.375       .  A
C1540      C1543   1.392       .  A
C1541      C1552   1.379       .  A
C1541      C1544   1.394       .  A
C1542      C1556   1.381       .  A
C1542      C1545   1.394       .  A
C1543      C1546   1.381       .  A
C1544      C1550   1.376       .  A
C1545      C1553   1.378       .  A
C1546      N1547   1.363       .  A
C1546      H1559   1.079       .  S
N1547      C1548   1.360       .  A
N1547      C1595   1.449       .  S
C1548      H1549   1.082       .  S
C1550      N1551   1.358       .  A
C1550      H1560   1.082       .  S
N1551      C1552   1.353       .  A
N1551      C1641   1.433       .  S
C1552      H1558   1.081       .  S
C1553      N1554   1.359       .  A
C1553      H1555   1.080       .  S
N1554      C1556   1.361       .  A
N1554      C1585   1.447       .  S
C1556      H1557   1.080       .  S
C1561      C1562   1.406       .  A
C1561      C1566   1.399       .  A
C1561      H1567   1.081       .  S
C1563      C1564   1.398       .  A
C1563      H1568   1.081       .  S
C1564      H1569   1.081       .  S
C1565      C1566   1.408       .  A
C1566      H1570   1.080       .  S
C1571      C1576   1.400       .  A
C1571      H1577   1.080       .  S
C1572      C1573   1.408       .  A
C1573      C1574   1.400       .  A
C1573      H1578   1.080       .  S
C1574      C1575   1.407       .  A
C1574      H1579   1.079       .  S
C1576      H1580   1.081       .  S
C1581      C1582   1.406       .  A
C1581      C1586   1.399       .  A
C1581      H1587   1.082       .  S
C1582      C1583   1.406       .  A
C1583      C1584   1.399       .  A
C1583      H1588   1.082       .  S
C1584      C1585   1.408       .  A
C1584      H1589   1.081       .  S
C1585      C1586   1.407       .  A
C1586      H1590   1.081       .  S
C1591      C1592   1.407       .  A
C1591      C1596   1.401       .  A
C1591      H1597   1.081       .  S
C1592      C1593   1.407       .  A
C1593      C1594   1.396       .  A
C1593      H1598   1.081       .  S
C1594      C1595   1.406       .  A
C1594      H1599   1.081       .  S
C1595      C1596   1.409       .  A
C1596      H1600   1.081       .  S
C1601      C1602   1.404       .  A
C1601      C1606   1.396       .  A
C1601      H1607   1.082       .  S
C1602      C1603   1.407       .  A
C1603      C1604   1.400       .  A
C1603      H1608   1.082       .  S
C1604      C1605   1.407       .  A
C1604      H1609   1.082       .  S
C1605      C1606   1.408       .  A
C1606      H1610   1.081       .  S
C1611      C1612   1.405       .  A
C1611      C1616   1.396       .  A
C1611      H1617   1.082       .  S
C1612      C1613   1.407       .  A
C1613      C1614   1.400       .  A
C1613      H1618   1.082       .  S
C1614      C1615   1.406       .  A
C1614      H1619   1.082       .  S
C1615      C1616   1.405       .  A
C1621      C1622   1.407       .  A
C1621      C1626   1.401       .  A
C1621      H1627   1.080       .  S
C1622      C1623   1.408       .  A
C1623      C1624   1.402       .  A
C1623      H1628   1.081       .  S
C1624      C1625   1.408       .  A
C1624      H1629   1.081       .  S
C1625      C1626   1.408       .  A
C1626      H1630   1.080       .  S
C1631      C1632   1.407       .  A
C1631      C1636   1.402       .  A
C1631      H1637   1.082       .  S
C1632      C1633   1.408       .  A
C1633      C1634   1.401       .  A
C1633      H1638   1.080       .  S
C1634      C1635   1.408       .  A
C1634      H1639   1.081       .  S
C1635      C1636   1.408       .  A
C1636      H1640   1.080       .  S
C1641      H1643   1.087       .  S
C1642      H1644   1.086       .  S
C1645      H1647   1.087       .  S
C1649      C1650   1.199       .  T
C1651      C1652   1.197       .  T
C1653      H1655   1.086       .  S
C1653      C1654   1.338       .  D
C1654      H1656   1.087       .  S
C1657      C1658   1.337       .  D
C1658      H1660   1.086       .  S
C1661      C1662   1.193       .  T
C1663      C1664   1.199       .  T
C1665      H1667   1.086       .  S
C1665      C1666   1.340       .  D
C1669      C1674   1.397       .  A
C1669      H1675   1.081       .  S
C1670      C1671   1.406   1_545  A
C1671      C1672   1.398       .  A
C1671      H1676   1.079       .  S
C1672      H1677   1.080       .  S
C1673      C1674   1.406       .  A
C1674      H1678   1.081       .  S
C1679      C1680   1.408       .  A
C1679      C1684   1.406       .  A
C1679      H1685   1.080       .  S
C1681      C1682   1.400       .  A
C1681      H1686   1.081       .  S
C1682      C1683   1.408       .  A
C1682      H1687   1.081       .  S
C1684      H1688   1.079       .  S
C1689      C1690   1.341       .  D
C1690      H1692   1.086       .  S
C1693      C1694   1.405       .  A
C1693      C1698   1.394       .  A
C1693      H1699   1.082       .  S
C1694      C1695   1.404       .  A
C1695      C1696   1.396       .  A
C1695      H1700   1.082       .  S
C1696      C1697   1.405       .  A
C1696      H1701   1.082       .  S
C1697      C1698   1.404       .  A
C1698      H1702   1.082       .  S
C1703      C1704   1.404       .  A
C1703      C1708   1.397       .  A
C1703      H1709   1.082       .  S
C1704      C1705   1.406       .  A
C1705      C1706   1.393       .  A
C1705      H1710   1.081       .  S
C1706      C1707   1.402       .  A
C1706      H1711   1.082       .  S
C1707      C1708   1.407       .  A
C1708      H1712   1.082       .  S
C1713      H1715   1.087       .  S
C1713      C1714   1.339       .  D
C1714      H1716   1.086       .  S
C1717      C1722   1.396       .  A
C1717      H1723   1.082       .  S
C1718      C1719   1.403       .  A
C1719      C1720   1.394       .  A
C1719      H1724   1.082       .  S
C1720      C1721   1.405       .  A
C1720      H1725   1.082       .  S
C1722      H1726   1.082       .  S
C1727      C1728   1.405       .  A
C1727      C1732   1.394       .  A
C1727      H1733   1.081       .  S
C1728      C1729   1.407       .  A
C1729      C1730   1.398       .  A
C1729      H1734   1.082       .  S
C1730      C1731   1.404       .  A
C1730      H1735   1.082       .  S
C1731      C1732   1.406       .  A
C1732      H1736   1.082       .  S
C1737      C1738   1.408       .  A
C1737      C1742   1.401       .  A
C1737      H1743   1.081       .  S
C1738      C1739   1.408       .  A
C1739      C1740   1.403       .  A
C1739      H1744   1.080       .  S
C1740      C1741   1.409       .  A
C1740      H1745   1.081       .  S
C1741      C1742   1.407       .  A
C1742      H1746   1.078       .  S
C1747      C1748   1.407       .  A
C1747      C1752   1.399       .  A
C1747      H1753   1.076       .  S
C1748      C1749   1.408       .  A
C1749      C1750   1.398       .  A
C1749      H1754   1.082       .  S
C1750      C1751   1.406       .  A
C1750      H1755   1.078       .  S
C1751      C1752   1.407       .  A
C1752      H1756   1.082       .  S
C1757      H1759   1.086       .  S
C1757      C1758   1.341       .  D
