geometry optimzed in LAMMPS
_audit_creation_date              2020-11-30 
_audit_creation_method            'lammps2cif' 
_symmetry_space_group_name_H-M    'P1' 
_symmetry_Int_Tables_number       1 
_symmetry_cell_setting            triclinic 
loop_ 
_symmetry_equiv_pos_as_xyz 
  x,y,z 
_cell_length_a                    57.81521293 
_cell_length_b                    45.681201808897804 
_cell_length_c                    17.35098985808965 
_cell_angle_alpha                 90.23474775449515 
_cell_angle_beta                  90.60928464456167 
_cell_angle_gamma                 90.4540988360266 
loop_ 
_atom_site_label 
_atom_site_type_symbol 
_atom_site_fract_x 
_atom_site_fract_y 
_atom_site_fract_z 
_atom_site_charge 
C1          C  0.71207360  0.21619401  0.92623568     0.30600
C2          C  0.71185243  0.21681168  0.08496545     0.30600
C3          C  0.72243789  0.24383697  0.96562063    -0.05600
C4          C  0.68795181  0.21468603  0.96416436    -0.06300
C5          C  0.72514433  0.19140430  0.96663119    -0.06200
C6          C  0.72219263  0.24408791  0.04607568    -0.05600
C7          C  0.68785252  0.21494892  0.04505758    -0.06300
C8          C  0.72502712  0.19189202  0.04666862    -0.06200
C9          C  0.73086128  0.27078496  0.06994879    -0.31600
N10         N  0.73730454  0.28635609  0.00714833     0.14900
C11         C  0.73162192  0.27041547  0.94314824    -0.31600
H12         H  0.73392538  0.27773816  0.88454803     0.16800
C13         C  0.66583842  0.22299443  0.06692465    -0.30600
N14         N  0.65248754  0.22658058  0.00298874     0.13600
C15         C  0.66598277  0.22265964  0.94042211    -0.30600
C16         C  0.73663810  0.16761562  0.07187394    -0.30900
N17         N  0.74356886  0.15204234  0.00948422     0.14100
H18         H  0.73957882  0.16161179  0.13139652     0.16700
C19         C  0.73679312  0.16653367  0.94477943    -0.30900
H20         H  0.73938056  0.15897080  0.88632051     0.16700
H21         H  0.66044270  0.22724728  0.88199298     0.16700
H22         H  0.73171987  0.27870483  0.12869951     0.16800
H23         H  0.66014509  0.22702548  0.12512337     0.16800
C24         C  0.71229871  0.21780452  0.42635541     0.30600
C25         C  0.71198888  0.21796101  0.58473756     0.30600
C26         C  0.72843807  0.24063279  0.46615539    -0.05600
C27         C  0.68891779  0.22511296  0.46401556    -0.06300
C28         C  0.71932151  0.18917037  0.46591593    -0.06200
C29         C  0.72832015  0.24065146  0.54721124    -0.05600
C30         C  0.68880729  0.22522764  0.54438722    -0.06300
C31         C  0.71909719  0.18931906  0.54580785    -0.06200
C32         C  0.73583552  0.26815380  0.57069358    -0.31600
N33         N  0.74144160  0.28426687  0.50803468     0.14900
C34         C  0.73584406  0.26823309  0.44443109    -0.31600
H35         H  0.73541670  0.27688921  0.38649848     0.16800
C36         C  0.66706662  0.23394219  0.56641977    -0.30600
N37         N  0.65372886  0.23827475  0.50247572     0.13600
C38         C  0.66711890  0.23354485  0.43965930    -0.30600
C39         C  0.72864854  0.16340600  0.57025980    -0.30900
N40         N  0.73486900  0.14750070  0.50746110     0.14100
H41         H  0.73130350  0.15697947  0.62961547     0.16700
C42         C  0.72914726  0.16308791  0.44335629    -0.30900
H43         H  0.73291448  0.15660535  0.38476801     0.16700
H44         H  0.66136705  0.23562503  0.38053945     0.16700
H45         H  0.73606137  0.27637635  0.62924708     0.16800
H46         H  0.66135031  0.23727470  0.62490880     0.16800
C47         C  0.80691478  0.96829072  0.09225824     0.30600
C48         C  0.80692347  0.96859114  0.93346074     0.30600
C49         C  0.79672710  0.99561121  0.05307512    -0.05600
C50         C  0.83096846  0.96713856  0.05405664    -0.06300
C51         C  0.79424370  0.44259770  0.05051434    -0.06200
C52         C  0.79644092  0.99542788  0.97278137    -0.05600
C53         C  0.83095067  0.96689015  0.97338460    -0.06300
C54         C  0.79470265  0.44244943  0.97026503    -0.06200
C55         C  0.78930706  0.02261515  0.94867482    -0.31600
N56         N  0.78555737  0.03947345  0.01187953     0.14900
C57         C  0.79052802  0.02342408  0.07560272    -0.31600
H58         H  0.79033891  0.03184553  0.13394232     0.16800
C59         C  0.85442735  0.46744113  0.95080730    -0.30600
N60         N  0.86796196  0.46920276  0.01511036     0.13600
C61         C  0.85412696  0.46883703  0.07778364    -0.30600
C62         C  0.78620558  0.41550278  0.94694164    -0.30900
N63         N  0.77916534  0.40029873  0.00972479     0.14100
H64         H  0.78634302  0.40684637  0.88886528     0.16700
C65         C  0.78444643  0.41650217  0.07351102    -0.30900
H66         H  0.78197969  0.40951302  0.13239962     0.16700
H67         H  0.86013475  0.47218504  0.13644096     0.16700
H68         H  0.78715654  0.02959882  0.88954896     0.16800
H69         H  0.86095013  0.46802625  0.89266205     0.16800
C70         C  0.80804880  0.96912709  0.59226007     0.30600
C71         C  0.80731083  0.96792193  0.43343069     0.30600
C72         C  0.79514369  0.99427847  0.55224565    -0.05600
C73         C  0.83188852  0.96979649  0.55259545    -0.06300
C74         C  0.79719067  0.44178095  0.55311765    -0.06200
C75         C  0.79489274  0.99386790  0.47192805    -0.05600
C76         C  0.83141797  0.97022529  0.47205111    -0.06300
C77         C  0.79674599  0.44127609  0.47280713    -0.06200
C78         C  0.78494113  0.01975819  0.44845219    -0.31600
N79         N  0.77823429  0.03513117  0.51146942     0.14900
C80         C  0.78469006  0.01987720  0.57529626    -0.31600
H81         H  0.78234400  0.02708519  0.63417587     0.16800
C82         C  0.85438625  0.47258590  0.44679890    -0.30600
N83         N  0.86849074  0.47210284  0.50968788     0.13600
C84         C  0.85526630  0.46955311  0.57339849    -0.30600
C85         C  0.78695098  0.41507223  0.44999758    -0.30900
N86         N  0.78148501  0.39939177  0.51380276     0.14100
H87         H  0.78414136  0.40788044  0.39110557     0.16700
C88         C  0.78805973  0.41529012  0.57694955    -0.30900
H89         H  0.78704043  0.40764569  0.63573276     0.16700
H90         H  0.86210790  0.46778035  0.63135929     0.16700
H91         H  0.78374291  0.02770603  0.38996062     0.16800
H92         H  0.86014063  0.47591527  0.38837407     0.16800
O93         O  0.54097708  0.22955018  0.95449945    -0.73800
O94         O  0.47534711  0.23836200  0.95749552    -0.73800
O95         O  0.51016420  0.26277929  0.87706811    -0.73900
O96         O  0.50612909  0.20522446  0.03551509    -0.73900
O97         O  0.51040053  0.24141877  0.12170321    -0.73900
O98         O  0.51378557  0.29878838  0.96403678    -0.73800
O99         O  0.47891424  0.27383241  0.04549333    -0.73800
O100        O  0.54512877  0.26550371  0.04061611    -0.73900
Ni101      Ni  0.50803134  0.23277396  0.95286068     1.25400
Ni102      Ni  0.51219665  0.27116774  0.04615757     1.25400
C103        C  0.55397678  0.24581047  0.99716734     0.88400
C104        C  0.46620321  0.25724529  0.00236990     0.88300
C105        C  0.51255026  0.28994721  0.89427939     0.88300
C106        C  0.50763365  0.21429407  0.10510997     0.88500
O107        O  0.54543958  0.27453582  0.45860152    -0.73800
O108        O  0.47932547  0.28304033  0.45393100    -0.73800
O109        O  0.51449213  0.30740077  0.53714453    -0.73900
O110        O  0.51018483  0.25024777  0.37602905    -0.73900
O111        O  0.50673897  0.21403489  0.46145993    -0.73900
O112        O  0.51083286  0.27086515  0.62151814    -0.73800
O113        O  0.47581351  0.24693896  0.53886535    -0.73800
O114        O  0.54185125  0.23860589  0.54402884    -0.73900
Ni115      Ni  0.51248614  0.28006485  0.45314731     1.25400
Ni116      Ni  0.50870510  0.24137919  0.54456919     1.25400
C117        C  0.55461999  0.25513490  0.50229863     0.88400
C118        C  0.46660633  0.26657088  0.49601481     0.88300
C119        C  0.51322809  0.29808713  0.60629897     0.88300
C120        C  0.50774932  0.22305109  0.39214898     0.88500
O121        O  0.97461693  0.01102032  0.96615202    -0.73800
O122        O  0.04044436  0.02237824  0.95475935    -0.73800
O123        O  0.00891880  0.98779148  0.88218549    -0.73900
O124        O  0.00590528  0.04589077  0.04049221    -0.73900
O125        O  0.01125287  0.51039761  0.12814898    -0.73900
O126        O  0.01408111  0.45224643  0.97137007    -0.73800
O127        O  0.04545570  0.48726173  0.04284047    -0.73800
O128        O  0.97970714  0.47577647  0.05551303    -0.73900
Ni129      Ni  0.00728980  0.01803521  0.95771745     1.25400
Ni130      Ni  0.01281503  0.48026507  0.05281354     1.25400
C131        C  0.96625229  0.49138316  0.01344335     0.88400
C132        C  0.05383935  0.50632524  0.99651155     0.88300
C133        C  0.01184944  0.46066873  0.90178970     0.88300
C134        C  0.00812897  0.53734434  0.11149524     0.88500
O135        O  0.04249259  0.01899961  0.54820346    -0.73800
O136        O  0.97664185  0.00927632  0.55043599    -0.73800
O137        O  0.01244960  0.98600489  0.62867088    -0.73900
O138        O  0.00667858  0.04258963  0.46894358    -0.73900
O139        O  0.00981002  0.50651042  0.38479611    -0.73900
O140        O  0.01434857  0.45004656  0.54516711    -0.73800
O141        O  0.97919153  0.47398250  0.46470873    -0.73800
O142        O  0.04501713  0.48275974  0.46547783    -0.73900
Ni143      Ni  0.00947533  0.01548978  0.55223906     1.25400
Ni144      Ni  0.01218913  0.47709402  0.46179629     1.25400
C145        C  0.05468408  0.50239607  0.50814425     0.88400
C146        C  0.96696703  0.49038258  0.50808894     0.88300
C147        C  0.01366203  0.45941157  0.61445356     0.88300
C148        C  0.00781590  0.53376889  0.40062573     0.88500
C149        C  0.30732913  0.28093860  0.90969966     0.30600
C150        C  0.30674949  0.28093703  0.06807183     0.30600
C151        C  0.29129615  0.25808395  0.94713282    -0.05600
C152        C  0.33078287  0.27539084  0.95083846    -0.06300
C153        C  0.30009818  0.30984884  0.94858764    -0.06200
C154        C  0.29108749  0.25787089  0.02800725    -0.05600
C155        C  0.33028676  0.27449148  0.03110367    -0.06300
C156        C  0.29957702  0.30950429  0.02870743    -0.06200
C157        C  0.28486630  0.22971717  0.04901692    -0.31600
N158        N  0.27988886  0.21363479  0.98509145     0.14900
C159        C  0.28451253  0.23047282  0.92280454    -0.31600
H160        H  0.28506902  0.22245615  0.86407723     0.16800
C161        C  0.35252767  0.26919350  0.05655049    -0.30600
N162        N  0.36681782  0.26852555  0.99483364     0.13600
C163        C  0.35370117  0.27312381  0.93046801    -0.30600
C164        C  0.29199524  0.33642838  0.05297407    -0.30900
N165        N  0.28820343  0.35345186  0.99014966     0.14100
H166        H  0.28909951  0.34301841  0.11206660     0.16700
C167        C  0.29347982  0.33760031  0.92622425    -0.30900
H168        H  0.29191698  0.34545892  0.86775311     0.16700
H169        H  0.36046719  0.27624596  0.87330752     0.16700
H170        H  0.28535676  0.22096290  0.10681804     0.16800
H171        H  0.35792028  0.26617042  0.11580906     0.16800
C172        C  0.30769257  0.28011443  0.40896533     0.30600
C173        C  0.30736653  0.27972890  0.56763813     0.30600
C174        C  0.29958266  0.25145547  0.44686664    -0.05600
C175        C  0.33137738  0.28486756  0.44960197    -0.06300
C176        C  0.29250541  0.30322014  0.44743447    -0.06200
C177        C  0.29915619  0.25146734  0.52707880    -0.05600
C178        C  0.33117172  0.28523340  0.53027617    -0.06300
C179        C  0.29253902  0.30339084  0.52802609    -0.06200
C180        C  0.29103351  0.22442332  0.54973315    -0.31600
N181        N  0.28681971  0.20789857  0.48568914     0.14900
C182        C  0.29230968  0.22406000  0.42283303    -0.31600
H183        H  0.29107971  0.21627911  0.36397164     0.16800
C184        C  0.35397313  0.28582887  0.55485850    -0.30600
N185        N  0.36786666  0.28443139  0.49233947     0.13600
C186        C  0.35427256  0.28328508  0.42817702    -0.30600
C187        C  0.28580737  0.33115593  0.54956605    -0.30900
N188        N  0.27991534  0.34670428  0.48600582     0.14100
H189        H  0.28690026  0.34032896  0.60706223     0.16700
C190        C  0.28467351  0.33013775  0.42319325    -0.30900
H191        H  0.28379439  0.33763392  0.36415171     0.16700
H192        H  0.36061892  0.27913991  0.37077361     0.16700
H193        H  0.28784224  0.21758556  0.60833547     0.16800
H194        H  0.36014506  0.28592926  0.61386024     0.16800
C195        C  0.21272677  0.53079962  0.06651722     0.30600
C196        C  0.21302902  0.53033706  0.90775709     0.30600
C197        C  0.22401095  0.50397509  0.02821876    -0.05600
C198        C  0.18880384  0.53067071  0.02560757    -0.06300
C199        C  0.22613670  0.05657990  0.02961008    -0.06200
C200        C  0.22472047  0.50403375  0.94779629    -0.05600
C201        C  0.18907310  0.53091030  0.94523600    -0.06300
C202        C  0.22666643  0.05598299  0.94935272    -0.06200
C203        C  0.23688780  0.47946313  0.92601114    -0.31600
N204        N  0.24238935  0.46387423  0.99004662     0.14900
C205        C  0.23442526  0.47854679  0.05247921    -0.31600
H206        H  0.23626945  0.47128753  0.11139505     0.16800
C207        C  0.16655850  0.52712539  0.91939628    -0.30600
N208        N  0.15287702  0.02517882  0.98319981     0.13600
C209        C  0.16612219  0.52534931  0.04617101    -0.30600
C210        C  0.23962614  0.07981284  0.92679994    -0.30900
N211        N  0.24577747  0.09578080  0.99003428     0.14100
H212        H  0.24407605  0.08556649  0.86841968     0.16700
C213        C  0.23783734  0.08157382  0.05342838    -0.30900
H214        H  0.23945390  0.08948552  0.11212742     0.16700
H215        H  0.16004991  0.02267022  0.10538828     0.16700
H216        H  0.24138208  0.47314200  0.86796910     0.16800
H217        H  0.16129730  0.02565399  0.86170801     0.16800
C218        C  0.21390915  0.52841058  0.56682294     0.30600
C219        C  0.21213493  0.52802781  0.40808890     0.30600
C220        C  0.22734345  0.50361285  0.52662208    -0.05600
C221        C  0.18986109  0.52555449  0.52980526    -0.06300
C222        C  0.22379373  0.05628245  0.52800138    -0.06200
C223        C  0.22603171  0.50311719  0.44607995    -0.05600
C224        C  0.18878686  0.52471713  0.44961018    -0.06300
C225        C  0.22263674  0.05595244  0.44777605    -0.06200
C226        C  0.23611553  0.47743316  0.42204389    -0.31600
N227        N  0.24436427  0.46304403  0.48481506     0.14900
C228        C  0.23946376  0.47910621  0.54858015    -0.31600
H229        H  0.24397944  0.47288187  0.60681918     0.16800
C230        C  0.16615505  0.51784249  0.43020484    -0.30600
N231        N  0.15380223  0.01582047  0.49647870     0.13600
C232        C  0.16794249  0.52069246  0.55690171    -0.30600
C233        C  0.23368138  0.08075165  0.42189426    -0.30900
N234        N  0.24161741  0.09626156  0.48382827     0.14100
H235        H  0.23651191  0.08644715  0.36223891     0.16700
C236        C  0.23617411  0.08115976  0.54861939    -0.30900
H237        H  0.24128278  0.08768568  0.60634837     0.16700
H238        H  0.16292809  0.01967929  0.61764864     0.16700
H239        H  0.23620951  0.46896939  0.36372395     0.16800
H240        H  0.15974367  0.01409434  0.37354896     0.16800
C241        C  0.21195289  0.53013499  0.81928580    -0.04800
C242        C  0.20944857  0.50352343  0.77884695    -0.32300
C243        C  0.20941235  0.50253154  0.69781772     0.37000
C244        C  0.21294144  0.52850773  0.65527278    -0.05200
C245        C  0.21035746  0.05549816  0.69716021    -0.32200
C246        C  0.20936603  0.05644187  0.77808695     0.36900
H247        H  0.20632620  0.48342379  0.80984700     0.17300
O248        O  0.20323020  0.47691406  0.66082502    -0.59700
H249        H  0.20746054  0.07557501  0.66597171     0.17300
O250        O  0.20298703  0.08198324  0.81406134    -0.59800
H251        H  0.21225219  0.09800595  0.79088955     0.44300
H252        H  0.21233618  0.46106527  0.68522994     0.44200
C253        C  0.21330935  0.53187130  0.15522451    -0.04800
C254        C  0.19540098  0.04510226  0.19837630    -0.32300
C255        C  0.19487314  0.04444885  0.27937565     0.37000
C256        C  0.21210245  0.52956339  0.31956709    -0.05200
C257        C  0.23226976  0.52229956  0.27907306    -0.32200
C258        C  0.23320930  0.52399749  0.19815776     0.36900
H259        H  0.18199523  0.05699133  0.16840889     0.17300
O260        O  0.17855276  0.06065992  0.31715738    -0.59700
H261        H  0.24780495  0.51633207  0.31036453     0.17300
O262        O  0.25406564  0.52047877  0.16197174    -0.59800
H263        H  0.26114808  0.50252216  0.18347850     0.44300
H264        H  0.16335453  0.05532430  0.29375125     0.44200
C265        C  0.25372256  0.12398681  0.48178282    -0.04800
C266        C  0.27166977  0.13001210  0.53497669    -0.32300
C267        C  0.28291331  0.15731170  0.53610128     0.37000
C268        C  0.27623942  0.17923853  0.48374121    -0.05200
C269        C  0.25858485  0.17307385  0.42976856    -0.32200
C270        C  0.24724188  0.14589741  0.42887478     0.36900
H271        H  0.27708526  0.11340985  0.57554900     0.17300
O272        O  0.30053686  0.16224681  0.58813005    -0.59700
H273        H  0.25306850  0.18979337  0.38964899     0.17300
O274        O  0.22929949  0.14141693  0.37777029    -0.59800
H275        H  0.21510688  0.14577402  0.40716507     0.44300
H276        H  0.31487512  0.15725858  0.56027533     0.44200
C277        C  0.27123631  0.37621867  0.48599327    -0.04800
C278        C  0.27787841  0.39608634  0.42849841    -0.32300
C279        C  0.26940307  0.42476340  0.42797676     0.37000
C280        C  0.25386710  0.43396759  0.48512151    -0.05200
C281        C  0.24725461  0.41409670  0.54246287    -0.32200
C282        C  0.25563164  0.38549172  0.54294306     0.36900
H283        H  0.28996577  0.38951780  0.38457599     0.17300
O284        O  0.27669533  0.44372669  0.37206025    -0.59700
H285        H  0.23502922  0.42057208  0.58608058     0.17300
O286        O  0.24795296  0.36655887  0.59839931    -0.59800
H287        H  0.23543271  0.35492683  0.57314678     0.44300
H288        H  0.28930158  0.45542989  0.39659320     0.44200
C289        C  0.25547439  0.12497677  0.98775201    -0.04800
C290        C  0.24787776  0.14453438  0.93070953    -0.32300
C291        C  0.25600514  0.17343142  0.92879098     0.37000
C292        C  0.27231980  0.18341338  0.98401321    -0.05200
C293        C  0.28026525  0.16370216  0.04044822    -0.32200
C294        C  0.27204433  0.13470750  0.04238000     0.36900
H295        H  0.23493981  0.13763210  0.88872154     0.24100
O296        O  0.24721207  0.19201922  0.87420657    -0.59700
H297        H  0.29301312  0.17072413  0.08291051     0.17300
O298        O  0.28047177  0.11603659  0.09738552    -0.59800
H299        H  0.29296826  0.10505748  0.07166233     0.44300
H300        H  0.23377952  0.20146433  0.89889472     0.44200
C301        C  0.25437098  0.43629251  0.99134153    -0.04800
C302        C  0.27293209  0.43130801  0.94134961    -0.32300
C303        C  0.28449605  0.40439487  0.94119396     0.37000
C304        C  0.27747525  0.38184974  0.99125336    -0.05200
C305        C  0.25909665  0.38701131  0.04163286    -0.32200
C306        C  0.24747480  0.41373132  0.04149480     0.36900
H307        H  0.27861333  0.44845038  0.90282790     0.17300
O308        O  0.30272837  0.40044514  0.89246337    -0.59700
H309        H  0.25318678  0.36982201  0.07961798     0.17300
O310        O  0.22883049  0.41713231  0.08875577    -0.59800
H311        H  0.21522314  0.41093968  0.05725553     0.44300
H312        H  0.31640086  0.40853975  0.92048189     0.44200
C313        C  0.30653896  0.27958240  0.82096121    -0.04800
C314        C  0.32225395  0.26207000  0.78015487    -0.32300
C315        C  0.32227490  0.26104539  0.69904286     0.37000
C316        C  0.30645014  0.27805718  0.65629161    -0.05200
C317        C  0.28801831  0.29054539  0.69725307    -0.32200
C318        C  0.28775475  0.29105862  0.77833433     0.36900
H319        H  0.33394605  0.24782133  0.81076470     0.17300
O320        O  0.33640529  0.24152755  0.66207920    -0.59700
H321        H  0.27305742  0.29884251  0.66688730     0.17300
O322        O  0.26819271  0.30030756  0.81536266    -0.59800
H323        H  0.26410232  0.31953229  0.79281239     0.44300
H324        H  0.35203652  0.24378033  0.68562936     0.44200
C325        C  0.30619440  0.28270832  0.15641163    -0.04800
C326        C  0.28735542  0.27125106  0.19756765    -0.32300
C327        C  0.28730195  0.27099396  0.27852543     0.37000
C328        C  0.30671409  0.28157646  0.32056738    -0.05200
C329        C  0.32328549  0.29786777  0.27961188    -0.32200
C330        C  0.32307358  0.29873079  0.19865874     0.36900
H331        H  0.27207455  0.26338127  0.16736536     0.17300
O332        O  0.26752926  0.26260197  0.31613018    -0.59700
H333        H  0.33599562  0.31111993  0.30998184     0.17300
O334        O  0.33836015  0.31686718  0.16137212    -0.59800
H335        H  0.35399628  0.31209638  0.18156530     0.44300
H336        H  0.26286930  0.24329688  0.29433996     0.44200
C337        C  0.08035160  0.00582552  0.50500195    -0.04800
C338        C  0.09328922  0.48803502  0.45763560    -0.32300
C339        C  0.11735681  0.49109153  0.45353740     0.37000
C340        C  0.12913518  0.01169705  0.50018669    -0.05200
C341        C  0.11612288  0.02926144  0.54977031    -0.32200
C342        C  0.09199099  0.02669305  0.55209248     0.36900
H343        H  0.08483644  0.47180685  0.42113799     0.17300
O344        O  0.12951810  0.47284276  0.40615782    -0.59700
H345        H  0.12471559  0.04555049  0.58571879     0.17300
O346        O  0.08009473  0.04458172  0.60116085    -0.59800
H347        H  0.07771845  0.06301250  0.57222002     0.44300
H348        H  0.12611084  0.47960821  0.35301359     0.44200
C349        C  0.12827411  0.01928222  0.98185355    -0.04800
C350        C  0.11879857  0.49664515  0.02784491    -0.32300
C351        C  0.09488230  0.49200962  0.03216305     0.37000
C352        C  0.07960465  0.01008069  0.98982583    -0.05200
C353        C  0.08907473  0.03061032  0.93824270    -0.32200
C354        C  0.11311339  0.03520096  0.93397599     0.36900
H355        H  0.13025199  0.48303666  0.06178401     0.17300
O356        O  0.08688205  0.47013622  0.07898884    -0.59700
H357        H  0.07782714  0.04351888  0.90168785     0.17300
O358        O  0.12154241  0.05593907  0.88450391    -0.59800
H359        H  0.12255114  0.07424876  0.91530465     0.44300
H360        H  0.08602835  0.45245458  0.04566930     0.44200
C361        C  0.01437144  0.43930495  0.67905660    -0.04800
C362        C  0.03524102  0.43802045  0.72050644    -0.32300
C363        C  0.03491288  0.43855201  0.80092732     0.37000
C364        C  0.01354274  0.43999996  0.83839424    -0.05200
C365        C  0.99362984  0.93415413  0.79431572    -0.32200
C366        C  0.99414772  0.93316662  0.71407238     0.36900
H367        H  0.05148495  0.44197652  0.69154688     0.17300
O368        O  0.05517073  0.44321749  0.84135557    -0.59700
H369        H  0.97702939  0.93535408  0.82260276     0.17300
O370        O  0.97367439  0.93380743  0.67345175    -0.59800
H371        H  0.97047967  0.91314806  0.65892677     0.44300
H372        H  0.05832551  0.46455123  0.83791926     0.44200
C373        C  0.00654388  0.55756311  0.17623210    -0.04800
C374        C  0.02681725  0.06207541  0.21655461    -0.32300
C375        C  0.02695592  0.05960920  0.29674264     0.37000
C376        C  0.00672764  0.55388266  0.33584959    -0.05200
C377        C  0.98562016  0.55565900  0.29588844    -0.32200
C378        C  0.98542148  0.55770742  0.21561560     0.36900
H379        H  0.04320850  0.06202084  0.18677327     0.17300
O380        O  0.04772276  0.05810832  0.33562855    -0.59700
H381        H  0.96959915  0.55063147  0.32511284     0.17300
O382        O  0.96501620  0.55295370  0.17628953    -0.59800
H383        H  0.96065328  0.57234996  0.15554375     0.44300
H384        H  0.05287794  0.03755102  0.32985008     0.44200
C385        C  0.44100294  0.27063955  0.49537111    -0.04800
C386        C  0.43097177  0.29103445  0.44461314    -0.32300
C387        C  0.40702287  0.29574609  0.44327484     0.37000
C388        C  0.39255594  0.28032174  0.49389477    -0.05200
C389        C  0.40243230  0.26010960  0.54495143    -0.32200
C390        C  0.42631629  0.25498355  0.54560036     0.36900
H391        H  0.44169700  0.30353666  0.40569309     0.17300
O392        O  0.39799306  0.31645279  0.39474226    -0.59700
H393        H  0.39147655  0.24784575  0.58368799     0.17300
O394        O  0.43504802  0.23497478  0.59668257    -0.59800
H395        H  0.43367762  0.21580674  0.56989277     0.44300
H396        H  0.39801309  0.30734572  0.34275523     0.44200
C397        C  0.39168749  0.26496152  0.99765051    -0.04800
C398        C  0.40449721  0.27418818  0.06303148    -0.32300
C399        C  0.42864114  0.27134072  0.06635935     0.37000
C400        C  0.44060789  0.25981133  0.00282794    -0.05200
C401        C  0.42778860  0.24983394  0.93860313    -0.32200
C402        C  0.40366086  0.25209983  0.93575488     0.36900
H403        H  0.39583214  0.28385299  0.11178757     0.17300
O404        O  0.44025143  0.27945738  0.13250744    -0.59700
H405        H  0.43649293  0.24016740  0.88982571     0.17300
O406        O  0.39190779  0.24019671  0.87392908    -0.59800
H407        H  0.39576553  0.25281437  0.82938774     0.44300
H408        H  0.44130866  0.26132699  0.16359998     0.44200
C409        C  0.51372853  0.31065696  0.83086645    -0.04800
C410        C  0.53499789  0.31395823  0.79393504    -0.32300
C411        C  0.53551210  0.31774129  0.71407889     0.37000
C412        C  0.51457523  0.31784240  0.67220248    -0.05200
C413        C  0.49376133  0.32162247  0.71156004    -0.32200
C414        C  0.49316011  0.31726168  0.79112968     0.36900
H415        H  0.55094665  0.30904663  0.82447140     0.17300
O416        O  0.55617903  0.31553433  0.67628162    -0.59700
H417        H  0.47753780  0.32199862  0.67966280     0.17300
O418        O  0.47220595  0.31487019  0.82717542    -0.59800
H419        H  0.46686490  0.29446983  0.81757476     0.44300
H420        H  0.55941139  0.29426635  0.67295952     0.44200
C421        C  0.50583171  0.19436846  0.16990285    -0.04800
C422        C  0.48472950  0.19545837  0.20869587    -0.32300
C423        C  0.48469454  0.20044633  0.28810798     0.37000
C424        C  0.50587120  0.20248970  0.32816030    -0.05200
C425        C  0.52632168  0.19423016  0.29180344    -0.32200
C426        C  0.52632558  0.18967829  0.21220925     0.36900
H427        H  0.46879442  0.19866804  0.17641196     0.17300
O428        O  0.46443982  0.20792044  0.32351212    -0.59700
H429        H  0.54270594  0.19570184  0.32260214     0.17300
O430        O  0.54707998  0.18763870  0.17507761    -0.59800
H431        H  0.54813551  0.16686062  0.15885999     0.44300
H432        H  0.46247066  0.22913934  0.31359357     0.44200
C433        C  0.94148784  0.48602436  0.50933631    -0.04800
C434        C  0.93107673  0.46571763  0.45821785    -0.32300
C435        C  0.90713630  0.46092658  0.45790560     0.37000
C436        C  0.89313694  0.47627964  0.50970834    -0.05200
C437        C  0.90346928  0.99592052  0.56329611    -0.32200
C438        C  0.92744312  0.00052993  0.56319401     0.36900
H439        H  0.94148233  0.45336976  0.41819924     0.17300
O440        O  0.89767944  0.44016532  0.40943138    -0.59700
H441        H  0.89301219  0.00793596  0.60386762     0.17300
O442        O  0.93696821  0.01961910  0.61609848    -0.59800
H443        H  0.93509395  0.03931674  0.59313541     0.44300
H444        H  0.89753193  0.44926331  0.35764292     0.44200
C445        C  0.80617592  0.97034899  0.84495684    -0.04800
C446        C  0.82285012  0.98705430  0.80589896    -0.32300
C447        C  0.82344321  0.98793593  0.72484058     0.37000
C448        C  0.80744852  0.97100758  0.68079344    -0.05200
C449        C  0.78848931  0.46036282  0.71867283    -0.32200
C450        C  0.78757814  0.46029390  0.79959631     0.36900
H451        H  0.83495432  0.00060151  0.83821656     0.17300
O452        O  0.83777349  0.00786569  0.68969511    -0.59700
H453        H  0.77343518  0.45285924  0.68648612     0.17300
O454        O  0.76694760  0.45385767  0.83463059    -0.59800
H455        H  0.76109756  0.43536686  0.81106721     0.44300
H456        H  0.85312696  0.00644901  0.71550686     0.44200
C457        C  0.80644541  0.96586351  0.34491600    -0.04800
C458        C  0.78743846  0.97703489  0.30352457    -0.32300
C459        C  0.78699400  0.97747016  0.22252769     0.37000
C460        C  0.80606259  0.96686615  0.18065156    -0.05200
C461        C  0.82273667  0.44946021  0.22049379    -0.32200
C462        C  0.82288489  0.44855894  0.30155937     0.36900
H463        H  0.77233131  0.98456109  0.33366070     0.17300
O464        O  0.76709997  0.98589330  0.18493407    -0.59700
H465        H  0.83507418  0.43622317  0.18984048     0.17300
O466        O  0.83730172  0.42932750  0.33890183    -0.59800
H467        H  0.85292205  0.43213435  0.31683171     0.44300
H468        H  0.76282671  0.00518322  0.20686382     0.44200
C469        C  0.89249282  0.47476657  0.01597400    -0.04800
C470        C  0.90154579  0.99548283  0.96298554    -0.32300
C471        C  0.92535625  0.00135359  0.96184220     0.37000
C472        C  0.94073590  0.48636696  0.01528481    -0.05200
C473        C  0.93140089  0.46442652  0.06290849    -0.32200
C474        C  0.90748828  0.45885569  0.06413337     0.36900
H475        H  0.89023926  0.00729028  0.92407135     0.17300
O476        O  0.93346097  0.02171003  0.91069820    -0.59700
H477        H  0.94263263  0.45139798  0.09920982     0.17300
O478        O  0.89901619  0.43693845  0.10993026    -0.59800
H479        H  0.89854736  0.44544868  0.16255506     0.44300
H480        H  0.93216383  0.04079570  0.93771032     0.44200
C481        C  0.76720333  0.06341923  0.51033017    -0.04800
C482        C  0.77326047  0.08473483  0.56564041    -0.32300
C483        C  0.76310114  0.11250977  0.56459080     0.37000
C484        C  0.74613172  0.11934979  0.50843003    -0.05200
C485        C  0.74017713  0.09808447  0.45286118    -0.32200
C486        C  0.75040771  0.07036222  0.45368599     0.36900
H487        H  0.78636552  0.08007370  0.60881845     0.17300
O488        O  0.77038303  0.13301962  0.61757411    -0.59700
H489        H  0.72713316  0.10279343  0.40950508     0.17300
O490        O  0.74346587  0.05003748  0.39969104    -0.59800
H491        H  0.73116023  0.03838938  0.42491138     0.44300
H492        H  0.78299842  0.14399552  0.59197464     0.44200
C493        C  0.75109523  0.31357594  0.50877353    -0.04800
C494        C  0.74487076  0.33380944  0.56614751    -0.32300
C495        C  0.75469474  0.36201333  0.56860087     0.37000
C496        C  0.77125117  0.37043228  0.51349566    -0.05200
C497        C  0.77742839  0.35020272  0.45633793    -0.32200
C498        C  0.76767269  0.32208398  0.45391940     0.36900
H499        H  0.73208651  0.32790263  0.60860587     0.17300
O500        O  0.74762805  0.38128129  0.62422528    -0.59700
H501        H  0.79029181  0.35603761  0.41406050     0.17300
O502        O  0.77499127  0.30282335  0.39868642    -0.59800
H503        H  0.78728401  0.29118886  0.42411584     0.44300
H504        H  0.73601230  0.39385473  0.59839320     0.44200
C505        C  0.62906379  0.24358225  0.50264200    -0.04800
C506        C  0.61532237  0.23045000  0.55939563    -0.32300
C507        C  0.59133027  0.23430645  0.56063359     0.37000
C508        C  0.58027749  0.25155550  0.50400446    -0.05200
C509        C  0.59406155  0.26517379  0.44785918    -0.32200
C510        C  0.61816228  0.26115119  0.44647197     0.36900
H511        H  0.62319789  0.21658784  0.60263054     0.17300
O512        O  0.57891115  0.22079279  0.61742926    -0.59700
H513        H  0.58614602  0.27877882  0.40408759     0.17300
O514        O  0.63094869  0.27537919  0.39180859    -0.59800
H515        H  0.62734190  0.26514602  0.34253302     0.44300
H516        H  0.57886120  0.23493638  0.66095444     0.44200
C517        C  0.77597441  0.06845646  0.01241236    -0.04800
C518        C  0.75846155  0.07505433  0.06482028    -0.32300
C519        C  0.74782557  0.10241794  0.06464703     0.37000
C520        C  0.75476804  0.12400036  0.01166913    -0.05200
C521        C  0.77254817  0.11761001  0.95979100    -0.32200
C522        C  0.78312269  0.09004167  0.95975013     0.36900
H523        H  0.75247255  0.05850092  0.10459945     0.17300
O524        O  0.72958023  0.10715151  0.11290327    -0.59700
H525        H  0.77829451  0.13410870  0.91947369     0.17300
O526        O  0.80097400  0.08476000  0.91027697    -0.59800
H527        H  0.79368303  0.08288417  0.85846904     0.44300
H528        H  0.73648652  0.10884546  0.16533240     0.44200
C529        C  0.76869682  0.37150314  0.00869603    -0.04800
C530        C  0.77401007  0.35133455  0.06697095    -0.32300
C531        C  0.76404835  0.32327945  0.06679317     0.37000
C532        C  0.74810931  0.31497102  0.00814457    -0.05200
C533        C  0.74291463  0.33511610  0.94976107    -0.32200
C534        C  0.75285437  0.36314778  0.95001407     0.36900
H535        H  0.78630499  0.35714689  0.11209980     0.17300
O536        O  0.77043002  0.30404410  0.12346064    -0.59700
H537        H  0.73059396  0.32939085  0.90465631     0.17300
O538        O  0.74642639  0.38247288  0.89364279    -0.59800
H539        H  0.73252218  0.39237325  0.91379055     0.44300
H540        H  0.78305433  0.29230340  0.10094795     0.44200
C541        C  0.71286936  0.21467517  0.83763615    -0.04800
C542        C  0.69466772  0.20162580  0.79479067    -0.32300
C543        C  0.69435415  0.20189212  0.71371986     0.37000
C544        C  0.71227775  0.21606930  0.67317308    -0.05200
C545        C  0.73221275  0.22426401  0.71565535    -0.32200
C546        C  0.73279056  0.22317565  0.79671281     0.36900
H547        H  0.68090922  0.19007933  0.82376481     0.17300
O548        O  0.67746140  0.18634627  0.67457424    -0.59700
H549        H  0.74782200  0.23067014  0.68612197     0.17300
O550        O  0.75331592  0.22834234  0.83532185    -0.59800
H551        H  0.75956693  0.24709485  0.81539670     0.44300
H552        H  0.66243182  0.19283220  0.69550942     0.44200
C553        C  0.71275073  0.21571284  0.17349993    -0.04800
C554        C  0.69503021  0.20169579  0.21475355    -0.32300
C555        C  0.69503768  0.20135131  0.29578226     0.37000
C556        C  0.71272435  0.21597786  0.33791255    -0.05200
C557        C  0.73225902  0.22542020  0.29676684    -0.32200
C558        C  0.73262137  0.22476046  0.21570543     0.36900
H559        H  0.68142015  0.18990499  0.18441908     0.17300
O560        O  0.67865229  0.18494901  0.33336938    -0.59700
H561        H  0.74778293  0.23233913  0.32724880     0.17300
O562        O  0.75297160  0.23071896  0.17835223    -0.59800
H563        H  0.75889057  0.24958303  0.19948881     0.44300
H564        H  0.66340593  0.19080640  0.31193681     0.44200
C565        C  0.62801723  0.23249712  0.00069459    -0.04800
C566        C  0.61389882  0.21756802  0.94709227    -0.32300
C567        C  0.58994247  0.22161819  0.94518462     0.37000
C568        C  0.57949578  0.24144047  0.99684817    -0.05200
C569        C  0.59374515  0.25675745  0.04981182    -0.32200
C570        C  0.61774725  0.25241743  0.05202297     0.36900
H571        H  0.62147594  0.20206315  0.90747969     0.17300
O572        O  0.57702624  0.20612306  0.89200212    -0.59700
H573        H  0.58629157  0.27209366  0.09013839     0.17300
O574        O  0.63098673  0.26802901  0.10396920    -0.59800
H575        H  0.63555862  0.28613612  0.07650331     0.44300
H576        H  0.57381058  0.18698193  0.91662591     0.44200
C577        C  0.71284776  0.71571480  0.92533750     0.30600
C578        C  0.71258692  0.71638444  0.08403371     0.30600
C579        C  0.72317519  0.74343656  0.96459371    -0.05600
C580        C  0.68873315  0.71420363  0.96321055    -0.06300
C581        C  0.72595895  0.69095566  0.96586354    -0.06200
C582        C  0.72291466  0.74368710  0.04509477    -0.05600
C583        C  0.68861168  0.71444266  0.04405380    -0.06300
C584        C  0.72581171  0.69147051  0.04590607    -0.06200
C585        C  0.73139015  0.77048655  0.06896555    -0.31600
N586        N  0.73769875  0.78616038  0.00620374     0.14900
C587        C  0.73215085  0.77017183  0.94213088    -0.31600
H588        H  0.73437273  0.77758611  0.88356069     0.16800
C589        C  0.66665082  0.72271911  0.06587121    -0.30600
N590        N  0.65334281  0.72658848  0.00195463     0.13600
C591        C  0.66687015  0.72261934  0.93949022    -0.30600
C592        C  0.73744379  0.66721802  0.07124867    -0.30900
N593        N  0.74446207  0.65165930  0.00894225     0.14100
H594        H  0.74035404  0.66122651  0.13079958     0.16700
C595        C  0.73767948  0.66610526  0.94416091    -0.30900
H596        H  0.74033398  0.65853717  0.88574317     0.16700
H597        H  0.66145777  0.72747837  0.88108943     0.16700
H598        H  0.73220925  0.77844292  0.12769564     0.16800
H599        H  0.66099898  0.72667939  0.12412469     0.16800
C600        C  0.71227445  0.71748110  0.42544346     0.30600
C601        C  0.71204778  0.71741115  0.58382509     0.30600
C602        C  0.72836295  0.74033180  0.46540491    -0.05600
C603        C  0.68887583  0.72458023  0.46329952    -0.06300
C604        C  0.71936298  0.68882347  0.46461835    -0.06200
C605        C  0.72828718  0.74024675  0.54641230    -0.05600
C606        C  0.68880742  0.72463257  0.54368350    -0.06300
C607        C  0.71918485  0.68883402  0.54450658    -0.06200
C608        C  0.73576337  0.76776609  0.57007859    -0.31600
N609        N  0.74131509  0.78398580  0.50751676     0.14900
C610        C  0.73571484  0.76798411  0.44385238    -0.31600
H611        H  0.73523836  0.77669308  0.38598029     0.16800
C612        C  0.66707589  0.73336597  0.56584132    -0.30600
N613        N  0.65366546  0.73768012  0.50199448     0.13600
C614        C  0.66704752  0.73292275  0.43911980    -0.30600
C615        C  0.72870305  0.66283388  0.56847602    -0.30900
N616        N  0.73487599  0.64705684  0.50537418     0.14100
H617        H  0.73141758  0.65628183  0.62770821     0.16700
C618        C  0.72911477  0.66276649  0.44155808    -0.30900
H619        H  0.73284655  0.65640830  0.38284829     0.16700
H620        H  0.66132248  0.73495364  0.37999359     0.16700
H621        H  0.73600091  0.77591319  0.62870705     0.16800
H622        H  0.66146868  0.73682846  0.62439195     0.16800
C623        C  0.80734640  0.46770995  0.09104075     0.30600
C624        C  0.80759763  0.46821877  0.93222021     0.30600
C625        C  0.79744151  0.49519261  0.05199010    -0.05600
C626        C  0.83140446  0.46628699  0.05322852    -0.06300
C627        C  0.79393958  0.94291511  0.05210022    -0.06200
C628        C  0.79727949  0.49514370  0.97168255    -0.05600
C629        C  0.83154665  0.46620496  0.97251432    -0.06300
C630        C  0.79426417  0.94273502  0.97183439    -0.06200
C631        C  0.79043988  0.52249009  0.94784080    -0.31600
N632        N  0.78671004  0.53926022  0.01123130     0.14900
C633        C  0.79142614  0.52301827  0.07480798    -0.31600
H634        H  0.79114691  0.53129568  0.13328026     0.16800
C635        C  0.85378425  0.96796801  0.95105078    -0.30600
N636        N  0.86752352  0.96992538  0.01487098     0.13600
C637        C  0.85378889  0.96972203  0.07794078    -0.30600
C638        C  0.78569199  0.91582562  0.94857915    -0.30900
N639        N  0.77877840  0.90058599  0.01141331     0.14100
H640        H  0.78566821  0.90719348  0.89047102     0.16700
C641        C  0.78419228  0.91675216  0.07520281    -0.30900
H642        H  0.78181954  0.90970200  0.13408919     0.16700
H643        H  0.85990579  0.97309452  0.13645825     0.16700
H644        H  0.78843710  0.52962894  0.88878951     0.16800
H645        H  0.86012915  0.96817602  0.89266233     0.16800
C646        C  0.80847116  0.46917101  0.59089376     0.30600
C647        C  0.80773295  0.46759356  0.43203137     0.30600
C648        C  0.79579664  0.49440831  0.55040668    -0.05600
C649        C  0.83228638  0.46938061  0.55123942    -0.06300
C650        C  0.79697389  0.94165244  0.55408218    -0.06200
C651        C  0.79555676  0.49380213  0.47007186    -0.05600
C652        C  0.83183184  0.46963317  0.47066707    -0.06300
C653        C  0.79654652  0.94133075  0.47377372    -0.06200
C654        C  0.78566907  0.51965123  0.44605978    -0.31600
N655        N  0.77898328  0.53519730  0.50878911     0.14900
C656        C  0.78539230  0.52009289  0.57292893    -0.31600
H657        H  0.78297676  0.52741798  0.63167315     0.16800
C658        C  0.85397973  0.97331645  0.44815355    -0.30600
N659        N  0.86813469  0.97276202  0.51095593     0.13600
C660        C  0.85490400  0.97007106  0.57466932    -0.30600
C661        C  0.78671456  0.91517706  0.45052202    -0.30900
N662        N  0.78118932  0.89934402  0.51403611     0.14100
H663        H  0.78384863  0.90816865  0.39150698     0.16700
C664        C  0.78776471  0.91511509  0.57745022    -0.30900
H665        H  0.78662878  0.90739171  0.63613401     0.16700
H666        H  0.86175441  0.96811353  0.63257944     0.16700
H667        H  0.78443533  0.52740365  0.38739114     0.16800
H668        H  0.85970865  0.97662885  0.38969694     0.16800
O669        O  0.54184882  0.72932792  0.95432128    -0.73800
O670        O  0.47614383  0.73819104  0.95698877    -0.73800
O671        O  0.51111778  0.76244928  0.87649239    -0.73900
O672        O  0.50690189  0.70508460  0.03547440    -0.73900
O673        O  0.51123862  0.74133789  0.12143563    -0.73900
O674        O  0.51463240  0.79855110  0.96322337    -0.73800
O675        O  0.47970757  0.77368453  0.04487095    -0.73800
O676        O  0.54595349  0.76542995  0.04005680    -0.73900
Ni677      Ni  0.50888199  0.73254400  0.95256963     1.25400
Ni678      Ni  0.51302153  0.77102395  0.04559578     1.25400
C679        C  0.55483010  0.74577869  0.99656441     0.88400
C680        C  0.46697288  0.75712656  0.00171217     0.88300
C681        C  0.51352913  0.78963230  0.89350612     0.88300
C682        C  0.50834317  0.71421244  0.10503804     0.88500
O683        O  0.54537232  0.77428162  0.45762200    -0.73800
O684        O  0.47928151  0.78309013  0.45371800    -0.73800
O685        O  0.51464755  0.80740161  0.53629233    -0.73900
O686        O  0.50988255  0.75003936  0.37573441    -0.73900
O687        O  0.50660252  0.71393590  0.46155261    -0.73900
O688        O  0.51088706  0.77099940  0.62101255    -0.73800
O689        O  0.47580650  0.74702505  0.53879324    -0.73800
O690        O  0.54182130  0.73858747  0.54378281    -0.73900
Ni691      Ni  0.51242451  0.77995810  0.45254020     1.25400
Ni692      Ni  0.50867545  0.74140962  0.54438734     1.25400
C693        C  0.55456885  0.75503632  0.50177096     0.88400
C694        C  0.46658745  0.76662698  0.49588931     0.88300
C695        C  0.51342514  0.79818014  0.60555378     0.88300
C696        C  0.50741171  0.72286878  0.39212618     0.88500
O697        O  0.97463776  0.51101418  0.96891201    -0.73800
O698        O  0.04031976  0.52230610  0.95576065    -0.73800
O699        O  0.00867277  0.48758567  0.88443520    -0.73900
O700        O  0.00603656  0.54599406  0.04188236    -0.73900
O701        O  0.01092519  0.01012199  0.12636653    -0.73900
O702        O  0.01423926  0.95233317  0.96883658    -0.73800
O703        O  0.04544354  0.98723821  0.04162873    -0.73800
O704        O  0.97957660  0.97560091  0.05228820    -0.73900
Ni705      Ni  0.00722762  0.51797887  0.95955104     1.25400
Ni706      Ni  0.01272754  0.98016685  0.05059438     1.25400
C707        C  0.96615555  0.99125141  0.01016301     0.88400
C708        C  0.05392421  0.00638531  0.99569142     0.88300
C709        C  0.01212774  0.96085876  0.89931999     0.88300
C710        C  0.00782633  0.03710292  0.11005367     0.88500
O711        O  0.04247659  0.51917091  0.55058537    -0.73800
O712        O  0.97655442  0.51020142  0.55036283    -0.73800
O713        O  0.01187031  0.48668882  0.63039016    -0.73900
O714        O  0.00711141  0.54312159  0.46997439    -0.73900
O715        O  0.00924248  0.00606849  0.38344892    -0.73900
O716        O  0.01489176  0.94950618  0.54300215    -0.73800
O717        O  0.97911905  0.97313366  0.46452759    -0.73800
O718        O  0.04505581  0.98277291  0.46259114    -0.73900
Ni719      Ni  0.00941591  0.51608148  0.55351400     1.25400
Ni720      Ni  0.01217214  0.97664231  0.46011335     1.25400
C721        C  0.05472542  0.00241004  0.50537756     0.88400
C722        C  0.96695867  0.98945132  0.50843621     0.88300
C723        C  0.01438528  0.95877023  0.61237743     0.88300
C724        C  0.00719092  0.03329225  0.39949974     0.88500
C725        C  0.30771648  0.78084496  0.90844792     0.30600
C726        C  0.30722836  0.78058373  0.06680632     0.30600
C727        C  0.29211025  0.75747737  0.94580055    -0.05600
C728        C  0.33132739  0.77581770  0.94936066    -0.06300
C729        C  0.30002663  0.80954272  0.94774204    -0.06200
C730        C  0.29195379  0.75714523  0.02656745    -0.05600
C731        C  0.33087933  0.77482822  0.02964797    -0.06300
C732        C  0.29955313  0.80903390  0.02782898    -0.06200
C733        C  0.28572923  0.72896792  0.04746683    -0.31600
N734        N  0.28069403  0.71295522  0.98340992     0.14900
C735        C  0.28528685  0.72989111  0.92120794    -0.31600
H736        H  0.28564406  0.72200739  0.86232959     0.16800
C737        C  0.35316705  0.76959335  0.05491261    -0.30600
N738        N  0.36744747  0.76897541  0.99314440     0.13600
C739        C  0.35426562  0.77348601  0.92880941    -0.30600
C740        C  0.29172041  0.83581034  0.05257345    -0.30900
N741        N  0.28770925  0.85295558  0.99010027     0.14100
H742        H  0.28892423  0.84225444  0.11183078     0.16700
C743        C  0.29312210  0.83728887  0.92591462    -0.30900
H744        H  0.29156215  0.84528726  0.86758394     0.16700
H745        H  0.36098486  0.77632033  0.87147516     0.16700
H746        H  0.28610684  0.72020785  0.10527680     0.16800
H747        H  0.35858982  0.76641820  0.11408867     0.16800
C748        C  0.30741531  0.77997992  0.40766713     0.30600
C749        C  0.30723577  0.77960683  0.56638694     0.30600
C750        C  0.29888310  0.75151693  0.44565534    -0.05600
C751        C  0.33120161  0.78407308  0.44812284    -0.06300
C752        C  0.29263481  0.80348785  0.44637776    -0.06200
C753        C  0.29855775  0.75153957  0.52590984    -0.05600
C754        C  0.33106095  0.78451905  0.52874054    -0.06300
C755        C  0.29274139  0.80363424  0.52690457    -0.06200
C756        C  0.29042346  0.72452254  0.54871744    -0.31600
N757        N  0.28609373  0.70799053  0.48476707     0.14900
C758        C  0.29151455  0.72413032  0.42178541    -0.31600
H759        H  0.29031530  0.71627646  0.36298418     0.16800
C760        C  0.35386870  0.78501666  0.55315290    -0.30600
N761        N  0.36772317  0.78336619  0.49058583     0.13600
C762        C  0.35407122  0.78223295  0.42652078    -0.30600
C763        C  0.28580744  0.83128050  0.54870529    -0.30900
N764        N  0.27977059  0.84684315  0.48524785     0.14100
H765        H  0.28688613  0.84036922  0.60628732     0.16700
C766        C  0.28454291  0.83030912  0.42227751    -0.30900
H767        H  0.28347458  0.83775165  0.36322280     0.16700
H768        H  0.36033603  0.77807024  0.36902931     0.16700
H769        H  0.28743317  0.71764904  0.60740996     0.16800
H770        H  0.36006568  0.78538084  0.61212562     0.16800
C771        C  0.21296380  0.03128852  0.06834556     0.30600
C772        C  0.21330537  0.03067241  0.90962261     0.30600
C773        C  0.22371322  0.00402121  0.03027539    -0.05600
C774        C  0.18904414  0.03196954  0.02741278    -0.06300
C775        C  0.22537632  0.55654335  0.02789031    -0.06200
C776        C  0.22444352  0.00401023  0.94987477    -0.05600
C777        C  0.18934764  0.03209028  0.94703589    -0.06300
C778        C  0.22588095  0.55602867  0.94760374    -0.06200
C779        C  0.23643834  0.97926697  0.92828769    -0.31600
N780        N  0.24181646  0.96359873  0.99232418     0.14900
C781        C  0.23393068  0.97843162  0.05468545    -0.31600
H782        H  0.23583667  0.97129581  0.11368626     0.16800
C783        C  0.16684192  0.02816316  0.92116142    -0.30600
N784        N  0.15266818  0.52403757  0.98154571     0.13600
C785        C  0.16633510  0.02663203  0.04785985    -0.30600
C786        C  0.23883849  0.57987258  0.92517640    -0.30900
N787        N  0.24504077  0.59575567  0.98848337     0.14100
H788        H  0.24344503  0.58555163  0.86688224     0.16700
C789        C  0.23711393  0.58150140  0.05183417    -0.30900
H790        H  0.23896753  0.58921208  0.11064733     0.16700
H791        H  0.15980543  0.52147707  0.10370812     0.16700
H792        H  0.24105614  0.97298992  0.87033621     0.16800
H793        H  0.16091119  0.52502441  0.85993787     0.16800
C794        C  0.21413100  0.02879142  0.56842314     0.30600
C795        C  0.21243422  0.02832102  0.40969370     0.30600
C796        C  0.22807345  0.00437038  0.52829460    -0.05600
C797        C  0.19011453  0.02519309  0.53121688    -0.06300
C798        C  0.22407884  0.55561295  0.52649710    -0.06200
C799        C  0.22677234  0.00386248  0.44776281    -0.05600
C800        C  0.18912782  0.02432405  0.45100455    -0.06300
C801        C  0.22289561  0.55536001  0.44625565    -0.06200
C802        C  0.23684736  0.97820349  0.42367336    -0.31600
N803        N  0.24522617  0.96383723  0.48625390     0.14900
C804        C  0.24031793  0.97989991  0.55011098    -0.31600
H805        H  0.24476315  0.97361581  0.60835706     0.16800
C806        C  0.16651613  0.01755718  0.43115706    -0.30600
N807        N  0.15355643  0.51610629  0.49578182     0.13600
C808        C  0.16810463  0.02040134  0.55790210    -0.30600
C809        C  0.23391063  0.58023834  0.42063932    -0.30900
N810        N  0.24183084  0.59569348  0.48274869     0.14100
H811        H  0.23654724  0.58616764  0.36103997     0.16700
C812        C  0.23640506  0.58049685  0.54739254    -0.30900
H813        H  0.24132280  0.58708827  0.60525026     0.16700
H814        H  0.16290995  0.51971812  0.61676459     0.16700
H815        H  0.23666511  0.96963267  0.36545908     0.16800
H816        H  0.15933008  0.51412615  0.37278233     0.16800
C817        C  0.21224483  0.03049825  0.82109490    -0.04800
C818        C  0.20977963  0.00391518  0.78049897    -0.32300
C819        C  0.20980624  0.00294408  0.69947212     0.37000
C820        C  0.21316519  0.02894382  0.65693636    -0.05200
C821        C  0.21009422  0.55507309  0.69532837    -0.32200
C822        C  0.20902911  0.55604806  0.77620009     0.36900
H823        H  0.20660114  0.98379759  0.81131060     0.17300
O824        O  0.20392389  0.97723684  0.66241642    -0.59700
H825        H  0.20722601  0.57512727  0.66398775     0.17300
O826        O  0.20246964  0.58154893  0.81198228    -0.59800
H827        H  0.21166285  0.59764275  0.78883505     0.44300
H828        H  0.21323476  0.96156428  0.68675837     0.44200
C829        C  0.21360585  0.03246760  0.15700694    -0.04800
C830        C  0.19500954  0.54436375  0.19640197    -0.32300
C831        C  0.19444846  0.54384283  0.27741428     0.37000
C832        C  0.21244274  0.02991445  0.32123082    -0.05200
C833        C  0.23257514  0.02258363  0.28059890    -0.32200
C834        C  0.23347742  0.02434530  0.19971535     0.36900
H835        H  0.18155919  0.55610341  0.16623275     0.17300
O836        O  0.17805684  0.56006214  0.31481749    -0.59700
H837        H  0.24811977  0.01652740  0.31168753     0.17300
O838        O  0.25426650  0.02053804  0.16330182    -0.59800
H839        H  0.26116892  0.00242132  0.18452062     0.44300
H840        H  0.16289385  0.55469605  0.29118905     0.44200
C841        C  0.25362652  0.62364753  0.48107496    -0.04800
C842        C  0.27157777  0.62987773  0.53411680    -0.32300
C843        C  0.28257839  0.65734894  0.53531830     0.37000
C844        C  0.27568851  0.67921804  0.48305939    -0.05200
C845        C  0.25797327  0.67288204  0.42945796    -0.32200
C846        C  0.24681071  0.64558136  0.42872494     0.36900
H847        H  0.27717876  0.61330755  0.57450581     0.17300
O848        O  0.30016877  0.66250758  0.58733441    -0.59700
H849        H  0.25224642  0.68957478  0.38958725     0.17300
O850        O  0.22866430  0.64100935  0.37849625    -0.59800
H851        H  0.21462626  0.64589804  0.40813183     0.44300
H852        H  0.31455681  0.65788762  0.55932327     0.44200
C853        C  0.27120877  0.87645492  0.48550675    -0.04800
C854        C  0.27750052  0.89614798  0.42715082    -0.32300
C855        C  0.26934269  0.92498083  0.42721461     0.37000
C856        C  0.25454192  0.93462485  0.48611767    -0.05200
C857        C  0.24823996  0.91491213  0.54422121    -0.32200
C858        C  0.25620459  0.88609992  0.54386866     0.36900
H859        H  0.28908059  0.88933200  0.38198695     0.17300
O860        O  0.27617755  0.94360807  0.36988627    -0.59700
H861        H  0.23648580  0.92162703  0.58901020     0.17300
O862        O  0.24865299  0.86732877  0.59987555    -0.59800
H863        H  0.23529472  0.85670364  0.57640830     0.44300
H864        H  0.28893222  0.95550323  0.39284803     0.44200
C865        C  0.25509987  0.62476110  0.98625064    -0.04800
C866        C  0.24759568  0.64454583  0.92965093    -0.32300
C867        C  0.25613065  0.67327070  0.92759568     0.37000
C868        C  0.27278830  0.68284118  0.98218925    -0.05200
C869        C  0.28066819  0.66286468  0.03810975    -0.32200
C870        C  0.27202850  0.63403813  0.04018284     0.36900
H871        H  0.23441869  0.63796259  0.88813128     0.24100
O872        O  0.24739336  0.69213283  0.87358157    -0.59700
H873        H  0.29366103  0.66956851  0.08010162     0.17300
O874        O  0.28039677  0.61507595  0.09459020    -0.59800
H875        H  0.29312467  0.60451248  0.06892534     0.44300
H876        H  0.23327914  0.70038198  0.89699863     0.44200
C877        C  0.25389195  0.93601786  0.99348281    -0.04800
C878        C  0.27216893  0.93093450  0.94234905    -0.32300
C879        C  0.28368839  0.90398672  0.94137792     0.37000
C880        C  0.27696840  0.88141339  0.99189406    -0.05200
C881        C  0.25892868  0.88669911  0.04363516    -0.32200
C882        C  0.24731801  0.91347419  0.04423109     0.36900
H883        H  0.27765367  0.94803079  0.90338256     0.17300
O884        O  0.30159399  0.90008698  0.89130444    -0.59700
H885        H  0.25324691  0.86955672  0.08213825     0.17300
O886        O  0.22897499  0.91690108  0.09276829    -0.59800
H887        H  0.21506274  0.91216576  0.06103256     0.44300
H888        H  0.31581062  0.90438507  0.92191957     0.44200
C889        C  0.30682988  0.77958315  0.81971516    -0.04800
C890        C  0.32247175  0.76203465  0.77873560    -0.32300
C891        C  0.32230981  0.76088131  0.69761432     0.37000
C892        C  0.30647338  0.77796010  0.65505371    -0.05200
C893        C  0.28811433  0.79047711  0.69624093    -0.32200
C894        C  0.28795177  0.79097965  0.77733236     0.36900
H895        H  0.33423256  0.74785205  0.80929233     0.17300
O896        O  0.33623186  0.74115524  0.66051996    -0.59700
H897        H  0.27312235  0.79876570  0.66601703     0.17300
O898        O  0.26837607  0.80004811  0.81458611    -0.59800
H899        H  0.26410236  0.81918902  0.79191605     0.44300
H900        H  0.35190644  0.74318845  0.68387366     0.44200
C901        C  0.30657117  0.78222785  0.15511940    -0.04800
C902        C  0.28756846  0.77092009  0.19577570    -0.32300
C903        C  0.28723367  0.77090671  0.27674865     0.37000
C904        C  0.30655806  0.78145912  0.31925887    -0.05200
C905        C  0.32326827  0.79764970  0.27865392    -0.32200
C906        C  0.32330336  0.79836175  0.19770510     0.36900
H907        H  0.27238290  0.76300220  0.16509972     0.17300
O908        O  0.26728890  0.76283416  0.31382338    -0.59700
H909        H  0.33591918  0.81090501  0.30931707     0.17300
O910        O  0.33863864  0.81652375  0.16073052    -0.59800
H911        H  0.35423354  0.81185417  0.18145439     0.44300
H912        H  0.26252894  0.74355455  0.29211641     0.44200
C913        C  0.08027003  0.50568013  0.50746319    -0.04800
C914        C  0.09356404  0.98779644  0.45672689    -0.32300
C915        C  0.11768213  0.99070285  0.45382115     0.37000
C916        C  0.12893986  0.51182838  0.50032864    -0.05200
C917        C  0.11611885  0.52893426  0.55158085    -0.32200
C918        C  0.09203357  0.52622224  0.55507371     0.36900
H919        H  0.08523035  0.97131066  0.42074155     0.17300
O920        O  0.13002628  0.97203869  0.40812958    -0.59700
H921        H  0.12481636  0.54500501  0.58792910     0.17300
O922        O  0.08030558  0.54365691  0.60570525    -0.59800
H923        H  0.07782080  0.56233909  0.57800893     0.44300
H924        H  0.12697477  0.97847720  0.35447444     0.44200
C925        C  0.12807058  0.51846539  0.98045693    -0.04800
C926        C  0.11893012  0.99831514  0.03177043    -0.32300
C927        C  0.09501001  0.99339438  0.03544849     0.37000
C928        C  0.07945983  0.50987811  0.98992561    -0.05200
C929        C  0.08885588  0.53136377  0.94094217    -0.32200
C930        C  0.11289435  0.53564087  0.93591448     0.36900
H931        H  0.13031502  0.98557021  0.06823319     0.17300
O932        O  0.08697563  0.97251137  0.08521216    -0.59700
H933        H  0.07756655  0.54523276  0.90711581     0.17300
O934        O  0.12133521  0.55724961  0.88908209    -0.59800
H935        H  0.12353270  0.57456847  0.92310655     0.44300
H936        H  0.08689842  0.95398510  0.05518523     0.44200
C937        C  0.01517010  0.93856289  0.67669612    -0.04800
C938        C  0.03596077  0.93759425  0.71867879    -0.32300
C939        C  0.03544662  0.93864126  0.79905386     0.37000
C940        C  0.01398314  0.94025000  0.83587352    -0.05200
C941        C  0.99309001  0.43417706  0.79708518    -0.32200
C942        C  0.99339889  0.43387745  0.71678002     0.36900
H943        H  0.05225601  0.94146848  0.68996270     0.17300
O944        O  0.05560733  0.94352124  0.83984643    -0.59700
H945        H  0.97656251  0.43523407  0.82588211     0.17300
O946        O  0.97281618  0.43493040  0.67685912    -0.59800
H947        H  0.97063635  0.41502505  0.65485861     0.44300
H948        H  0.05873286  0.96484780  0.83588444     0.44200
C949        C  0.00621480  0.05721358  0.17510165    -0.04800
C950        C  0.02717501  0.56268269  0.21731574    -0.32300
C951        C  0.02743551  0.56023523  0.29751901     0.37000
C952        C  0.00616936  0.05344644  0.33480103    -0.05200
C953        C  0.98512432  0.05538106  0.29452019    -0.32200
C954        C  0.98505135  0.05753996  0.21418663     0.36900
H955        H  0.04352136  0.56280177  0.18726310     0.17300
O956        O  0.04825342  0.55905183  0.33617493    -0.59700
H957        H  0.96903613  0.05049481  0.32349270     0.17300
O958        O  0.96468402  0.05325679  0.17430331    -0.59800
H959        H  0.95738382  0.07280405  0.17224717     0.44300
H960        H  0.05363849  0.53860502  0.33010063     0.44200
C961        C  0.44098452  0.77053941  0.49505763    -0.04800
C962        C  0.43079350  0.78990368  0.44190823    -0.32300
C963        C  0.40680149  0.79425946  0.43995222     0.37000
C964        C  0.39244610  0.77946736  0.49223047    -0.05200
C965        C  0.40251264  0.76032708  0.54575129    -0.32200
C966        C  0.42644718  0.75562528  0.54721889     0.36900
H967        H  0.44142497  0.80184578  0.40152941     0.17300
O968        O  0.39762803  0.81408676  0.38919739    -0.59700
H969        H  0.39168684  0.74861293  0.58601332     0.17300
O970        O  0.43539459  0.73689726  0.60122075    -0.59800
H971        H  0.43371355  0.71708663  0.57812609     0.44300
H972        H  0.39786817  0.80426001  0.33813564     0.44200
C973        C  0.39234529  0.76536489  0.99605535    -0.04800
C974        C  0.40518773  0.77498459  0.06099489    -0.32300
C975        C  0.42934655  0.77205530  0.06457869     0.37000
C976        C  0.44132318  0.75983402  0.00191036    -0.05200
C977        C  0.42845554  0.74949108  0.93812404    -0.32200
C978        C  0.40432147  0.75204505  0.93483367     0.36900
H979        H  0.39652560  0.78507936  0.10916155     0.17300
O980        O  0.44097044  0.78089710  0.13006346    -0.59700
H981        H  0.43713358  0.73939068  0.88990910     0.17300
O982        O  0.39255775  0.74005841  0.87315550    -0.59800
H983        H  0.39644315  0.75259688  0.82848793     0.44300
H984        H  0.44131556  0.76339134  0.16369926     0.44200
C985        C  0.51479797  0.81029349  0.82995369    -0.04800
C986        C  0.53596946  0.81319078  0.79217403    -0.32300
C987        C  0.53624921  0.81737999  0.71243112     0.37000
C988        C  0.51517651  0.81794860  0.67137048    -0.05200
C989        C  0.49455839  0.82202308  0.71166738    -0.32200
C990        C  0.49419873  0.81752592  0.79122532     0.36900
H991        H  0.55195592  0.80783529  0.82192900     0.17300
O992        O  0.55675843  0.81507056  0.67373660    -0.59700
H993        H  0.47823133  0.82281520  0.68045241     0.17300
O994        O  0.47336739  0.81570947  0.82823353    -0.59800
H995        H  0.46782475  0.79531442  0.81995203     0.44300
H996        H  0.55976523  0.79377474  0.66939673     0.44200
C997        C  0.50593088  0.69441133  0.16994502    -0.04800
C998        C  0.48467014  0.69616134  0.20758262    -0.32300
C999        C  0.48433663  0.70103550  0.28700894     0.37000
C1000       C  0.50534048  0.70224445  0.32828883    -0.05200
C1001       C  0.52576188  0.69321249  0.29302476    -0.32200
C1002       C  0.52609494  0.68891067  0.21333140     0.36900
H1003       H  0.46897417  0.69996883  0.17447196     0.17300
O1004       O  0.46407558  0.70919712  0.32131054    -0.59700
H1005       H  0.54200239  0.69396780  0.32480839     0.17300
O1006       O  0.54698459  0.68607726  0.17743412    -0.59800
H1007       H  0.54710033  0.66570405  0.15750829     0.44300
H1008       H  0.46260562  0.73048019  0.31133072     0.44200
C1009       C  0.94141968  0.98521407  0.51040884    -0.04800
C1010       C  0.93070729  0.96528853  0.45893500    -0.32300
C1011       C  0.90667919  0.96100680  0.45863076     0.37000
C1012       C  0.89286604  0.97647898  0.51084187    -0.05200
C1013       C  0.90342454  0.49618441  0.56162149    -0.32200
C1014       C  0.92731463  0.50130844  0.56150938     0.36900
H1015       H  0.94094019  0.95291109  0.41848312     0.17300
O1016       O  0.89694174  0.94061730  0.40967615    -0.59700
H1017       H  0.89277943  0.50814963  0.60174270     0.17300
O1018       O  0.93656818  0.52083599  0.61382053    -0.59800
H1019       H  0.93446746  0.54037538  0.59015490     0.44300
H1020       H  0.89695570  0.94987488  0.35808701     0.44200
C1021       C  0.80687925  0.47008704  0.84368746    -0.04800
C1022       C  0.82362491  0.48669496  0.80461957    -0.32300
C1023       C  0.82408592  0.48779629  0.72351065     0.37000
C1024       C  0.80791765  0.47113474  0.67945516    -0.05200
C1025       C  0.78801944  0.96013354  0.71986965    -0.32200
C1026       C  0.78698453  0.96026832  0.80079456     0.36900
H1027       H  0.83585679  0.50003967  0.83697421     0.17300
O1028       O  0.83845756  0.50769040  0.68838859    -0.59700
H1029       H  0.77304827  0.95244356  0.68755612     0.17300
O1030       O  0.76633387  0.95379251  0.83567394    -0.59800
H1031       H  0.76049624  0.93531304  0.81201227     0.44300
H1032       H  0.85381382  0.50622107  0.71415424     0.44200
C1033       C  0.80683707  0.46533545  0.34356436    -0.04800
C1034       C  0.78781690  0.47645989  0.30213103    -0.32300
C1035       C  0.78737128  0.47682624  0.22113825     0.37000
C1036       C  0.80642432  0.46615705  0.17937915    -0.05200
C1037       C  0.82243884  0.95025382  0.22170661    -0.32200
C1038       C  0.82254689  0.94922311  0.30277737     0.36900
H1039       H  0.77273612  0.48408023  0.33225707     0.17300
O1040       O  0.76751493  0.48530417  0.18341486    -0.59700
H1041       H  0.83484290  0.93714584  0.19096960     0.17300
O1042       O  0.83698568  0.92998563  0.33999815    -0.59800
H1043       H  0.85260641  0.93286030  0.31799805     0.44300
H1044       H  0.76330858  0.50465079  0.20513768     0.44200
C1045       C  0.89216235  0.97516416  0.01460699    -0.04800
C1046       C  0.90167347  0.49660814  0.96854205    -0.32300
C1047       C  0.92541133  0.50278721  0.96862910     0.37000
C1048       C  0.94058764  0.98620555  0.01176886    -0.05200
C1049       C  0.93109866  0.96562771  0.06309218    -0.32200
C1050       C  0.90713308  0.96034949  0.06537235     0.36900
H1051       H  0.89025033  0.50930276  0.93205143     0.17300
O1052       O  0.93334120  0.52478676  0.92206069    -0.59700
H1053       H  0.94225205  0.95352619  0.10184670     0.17300
O1054       O  0.89859418  0.93973655  0.11502322    -0.59800
H1055       H  0.89887723  0.94927044  0.16647902     0.44300
H1056       H  0.93276645  0.54277268  0.95418404     0.44200
C1057       C  0.76788500  0.56342923  0.50723552    -0.04800
C1058       C  0.77387708  0.58481461  0.56239641    -0.32300
C1059       C  0.76351699  0.61244972  0.56152542     0.37000
C1060       C  0.74636411  0.61906086  0.50583560    -0.05200
C1061       C  0.74053691  0.59778251  0.45013280    -0.32200
C1062       C  0.75102138  0.57020481  0.45063869     0.36900
H1063       H  0.78707417  0.58030623  0.60537969     0.17300
O1064       O  0.77078525  0.63307294  0.61421496    -0.59700
H1065       H  0.72741398  0.60236640  0.40694121     0.17300
O1066       O  0.74426168  0.54986864  0.39641673    -0.59800
H1067       H  0.73222360  0.53781426  0.42175227     0.44300
H1068       H  0.78319003  0.64425105  0.58808681     0.44200
C1069       C  0.75087375  0.81337286  0.50832131    -0.04800
C1070       C  0.74459568  0.83356639  0.56573687    -0.32300
C1071       C  0.75432332  0.86184476  0.56822858     0.37000
C1072       C  0.77088437  0.87038466  0.51323287    -0.05200
C1073       C  0.77704896  0.85022738  0.45585182    -0.32200
C1074       C  0.76736979  0.82204422  0.45333896     0.36900
H1075       H  0.73184065  0.82756852  0.60820733     0.17300
O1076       O  0.74715159  0.88107190  0.62378762    -0.59700
H1077       H  0.78987313  0.85615140  0.41352813     0.17300
O1078       O  0.77470327  0.80287258  0.39791407    -0.59800
H1079       H  0.78722700  0.79149606  0.42290316     0.44300
H1080       H  0.73545603  0.89351683  0.59791440     0.44200
C1081       C  0.62900811  0.74328962  0.50232389    -0.04800
C1082       C  0.61534185  0.73149221  0.56133448    -0.32300
C1083       C  0.59136869  0.73559514  0.56271711     0.37000
C1084       C  0.58022356  0.75154452  0.50370910    -0.05200
C1085       C  0.59390258  0.76395366  0.44548105    -0.32200
C1086       C  0.61799264  0.75984630  0.44415434     0.36900
H1087       H  0.62322787  0.71849068  0.60636868     0.17300
O1088       O  0.57905408  0.72368962  0.62217600    -0.59700
H1089       H  0.58590233  0.77665171  0.39999312     0.17300
O1090       O  0.63063927  0.77305777  0.38743306    -0.59800
H1091       H  0.62674998  0.76213178  0.33941902     0.44300
H1092       H  0.57945133  0.73876649  0.66348221     0.44200
C1093       C  0.77715443  0.56824931  0.01205747    -0.04800
C1094       C  0.75948011  0.57468134  0.06399187    -0.32300
C1095       C  0.74878558  0.60200329  0.06386336     0.37000
C1096       C  0.75578741  0.62369298  0.01127841    -0.05200
C1097       C  0.77377090  0.61749174  0.95999527    -0.32200
C1098       C  0.78444840  0.58997902  0.96004585     0.36900
H1099       H  0.75340704  0.55802543  0.10333576     0.17300
O1100       O  0.73043520  0.60659402  0.11176541    -0.59700
H1101       H  0.77959153  0.63409450  0.92009256     0.17300
O1102       O  0.80252617  0.58488582  0.91134538    -0.59800
H1103       H  0.79545824  0.58305067  0.85919627     0.44300
H1104       H  0.73724347  0.60828136  0.16433570     0.44200
C1105       C  0.76834879  0.87175835  0.01009556    -0.04800
C1106       C  0.77431340  0.85115231  0.06653998    -0.32300
C1107       C  0.76463379  0.82292396  0.06529310     0.37000
C1108       C  0.74827962  0.81491268  0.00765865    -0.05200
C1109       C  0.74238625  0.83550996  0.95114847    -0.32200
C1110       C  0.75209455  0.86369954  0.95233507     0.36900
H1111       H  0.78694505  0.85674905  0.11082270     0.17300
O1112       O  0.77172424  0.80317073  0.11974119    -0.59700
H1113       H  0.72975863  0.82995524  0.90683067     0.17300
O1114       O  0.74512050  0.88343375  0.89769019    -0.59800
H1115       H  0.73160001  0.89342564  0.92026081     0.44300
H1116       H  0.78466400  0.79244768  0.09575585     0.44200
C1117       C  0.71349015  0.71404527  0.83672985    -0.04800
C1118       C  0.69516146  0.70104436  0.79432126    -0.32300
C1119       C  0.69462308  0.70137114  0.71325675     0.37000
C1120       C  0.71250817  0.71543246  0.67226500    -0.05200
C1121       C  0.73258213  0.72347479  0.71427516    -0.32200
C1122       C  0.73332554  0.72245850  0.79533415     0.36900
H1123       H  0.68143431  0.68955765  0.82362465     0.17300
O1124       O  0.67752517  0.68602517  0.67455814    -0.59700
H1125       H  0.74814015  0.72982213  0.68435796     0.17300
O1126       O  0.75390733  0.72770749  0.83349008    -0.59800
H1127       H  0.75991435  0.74665679  0.81403652     0.44300
H1128       H  0.66260042  0.69263044  0.69605611     0.44200
C1129       C  0.71331149  0.71531800  0.17259029    -0.04800
C1130       C  0.69552629  0.70124100  0.21343744    -0.32300
C1131       C  0.69525279  0.70107944  0.29444586     0.37000
C1132       C  0.71280917  0.71577386  0.33699693    -0.05200
C1133       C  0.73243974  0.72523872  0.29633815    -0.32200
C1134       C  0.73301203  0.72458198  0.21530775     0.36900
H1135       H  0.68204995  0.68931136  0.18280916     0.17300
O1136       O  0.67872897  0.68476534  0.33162129    -0.59700
H1137       H  0.74788560  0.73220032  0.32718908     0.17300
O1138       O  0.75341404  0.73077593  0.17852829    -0.59800
H1139       H  0.75914297  0.74970706  0.19982570     0.44300
H1140       H  0.66355876  0.69063134  0.30959424     0.44200
C1141       C  0.62889386  0.73275661  0.99948493    -0.04800
C1142       C  0.61490579  0.71910354  0.94314231    -0.32300
C1143       C  0.59096106  0.72324880  0.94105188     0.37000
C1144       C  0.58036442  0.74169275  0.99573552    -0.05200
C1145       C  0.59446749  0.75589254  0.05118233    -0.32200
C1146       C  0.61846963  0.75160556  0.05328820     0.36900
H1147       H  0.62255220  0.70451146  0.90135273     0.17300
O1148       O  0.57820876  0.70934891  0.88449030    -0.59700
H1149       H  0.58688500  0.77026065  0.09364787     0.17300
O1150       O  0.63152744  0.76622882  0.10766725    -0.59800
H1151       H  0.63659422  0.78455742  0.08222593     0.44300
H1152       H  0.57511104  0.68943790  0.90469793     0.44200
loop_ 
_geom_bond_atom_site_label_1 
_geom_bond_atom_site_label_2 
_geom_bond_distance 
_geom_bond_site_symmetry_2 
_ccdc_geom_bond_type 
C1            C3   1.547       .  S
C1            C5   1.534       .  S
C1            C4   1.550       .  S
C1          C541   1.540       .  S
C2            C6   1.539       .  S
C2            C8   1.528       .  S
C2            C7   1.546       .  S
C2          C553   1.538       .  S
C3           C11   1.381       .  A
C3            C6   1.396   1_556  A
C4           C15   1.383       .  A
C4            C7   1.404   1_556  A
C5           C19   1.379       .  A
C5            C8   1.389   1_556  A
C6            C9   1.375       .  A
C7           C13   1.384       .  A
C8           C16   1.372       .  A
C9           N10   1.358       .  A
C9           H22   1.081       .  S
N10          C11   1.361   1_554  A
N10         C532   1.444       .  S
C11          H12   1.081       .  S
C13          N14   1.356       .  A
C13          H23   1.081       .  S
N14          C15   1.356   1_554  A
N14         C565   1.443       .  S
C15          H21   1.082       .  S
C16          N17   1.359       .  A
C16          H18   1.082       .  S
N17          C19   1.361   1_554  A
N17         C520   1.440       .  S
C19          H20   1.082       .  S
C24          C26   1.549       .  S
C24          C28   1.535       .  S
C24          C27   1.546       .  S
C24         C556   1.537       .  S
C25          C29   1.547       .  S
C25          C31   1.531       .  S
C25          C30   1.545       .  S
C25         C544   1.537       .  S
C26          C34   1.383       .  A
C26          C29   1.406       .  A
C27          C38   1.383       .  A
C27          C30   1.395       .  A
C28          C42   1.381       .  A
C28          C31   1.386       .  A
C29          C32   1.384       .  A
C30          C36   1.379       .  A
C31          C39   1.377       .  A
C32          N33   1.356       .  A
C32          H45   1.082       .  S
N33          C34   1.357       .  A
N33         C493   1.446       .  S
C34          H35   1.082       .  S
C36          N37   1.360       .  A
C36          H46   1.081       .  S
N37          C38   1.361       .  A
N37         C505   1.448       .  S
C38          H44   1.080       .  S
C39          N40   1.360       .  A
C39          H41   1.082       .  S
N40          C42   1.362       .  A
N40         C484   1.446       .  S
C42          H43   1.082       .  S
C47          C49   1.542       .  S
C47          C50   1.548       .  S
C47         C460   1.537       .  S
C47         C627   1.536       .  S
C48          C52   1.533       .  S
C48          C53   1.548       .  S
C48         C445   1.538       .  S
C48         C630   1.542       .  S
C49          C57   1.379   1_565  A
C49          C52   1.393   1_554  A
C50          C53   1.400   1_554  A
C50         C637   1.383       .  A
C51         C623   1.534       .  S
C51          C65   1.378       .  A
C51          C54   1.393   1_554  A
C52          C55   1.377   1_565  A
C53         C635   1.380       .  A
C54         C624   1.543       .  S
C54          C62   1.379       .  A
C55          N56   1.358   1_556  A
C55          H68   1.082       .  S
N56          C57   1.359       .  A
N56         C517   1.439       .  S
C57          H58   1.082       .  S
C59         C629   1.380       .  A
C59          N60   1.358   1_556  A
C59          H69   1.081       .  S
N60          C61   1.357       .  A
N60         C469   1.439       .  S
C61         C626   1.381       .  A
C61          H67   1.082       .  S
C62          N63   1.359   1_556  A
C62          H64   1.081       .  S
N63          C65   1.360       .  A
N63         C529   1.444       .  S
C65          H66   1.082       .  S
C70          C72   1.539       .  S
C70          C73   1.547       .  S
C70         C448   1.539       .  S
C70         C650   1.548       .  S
C71          C75   1.544       .  S
C71          C76   1.543       .  S
C71         C457   1.539       .  S
C71         C653   1.535       .  S
C72          C80   1.380   1_565  A
C72          C75   1.394       .  A
C73          C76   1.398       .  A
C73         C660   1.381       .  A
C74         C646   1.547       .  S
C74          C88   1.383       .  A
C74          C77   1.394       .  A
C75          C78   1.380   1_565  A
C76         C658   1.379       .  A
C77         C647   1.534       .  S
C77          C85   1.375       .  A
C78          N79   1.359       .  A
C78          H91   1.081       .  S
N79          C80   1.361       .  A
N79         C481   1.446       .  S
C80          H81   1.082       .  S
C82         C652   1.378       .  A
C82          N83   1.356       .  A
C82          H92   1.081       .  S
N83          C84   1.356       .  A
N83         C436   1.436       .  S
C84         C649   1.379       .  A
C84          H90   1.080       .  S
C85          N86   1.360       .  A
C85          H87   1.082       .  S
N86          C88   1.361       .  A
N86         C496   1.445       .  S
C88          H89   1.081       .  S
O93        Ni101   1.912       .  S
O93         C103   1.280       .  A
O94        Ni101   1.911       .  S
O94         C104   1.281   1_556  A
O95        Ni101   1.908       .  S
O95         C105   1.281       .  A
O96        Ni101   1.915   1_554  S
O96         C106   1.277       .  A
O97        Ni102   1.895       .  S
O97         C106   1.279       .  A
O98        Ni102   1.910   1_556  S
O98         C105   1.275       .  A
O99        Ni102   1.929       .  S
O99         C104   1.284       .  A
O100       Ni102   1.927       .  S
O100        C103   1.284   1_554  A
Ni101      Ni102   2.391   1_556  S
C103        C568   1.490       .  S
C104        C400   1.485       .  S
C105        C409   1.456       .  S
C106        C421   1.453       .  S
O107       Ni115   1.925       .  S
O107        C117   1.283       .  A
O108       Ni115   1.923       .  S
O108        C118   1.283       .  A
O109       Ni115   1.917       .  S
O109        C119   1.277       .  A
O110       Ni115   1.908       .  S
O110        C120   1.282       .  A
O111       Ni116   1.906       .  S
O111        C120   1.275       .  A
O112       Ni116   1.895       .  S
O112        C119   1.279       .  A
O113       Ni116   1.922       .  S
O113        C118   1.283       .  A
O114       Ni116   1.922       .  S
O114        C117   1.283       .  A
Ni115      Ni116   2.390       .  S
C117        C508   1.494       .  S
C118        C385   1.493       .  S
C119        C412   1.455       .  S
C120        C424   1.454       .  S
O121       Ni129   1.921   1_655  S
O121        C707   1.282   1_546  A
O122       Ni129   1.927       .  S
O122        C708   1.283       .  A
O123       Ni129   1.904   1_565  S
O123        C709   1.281       .  A
O124       Ni129   1.918   1_554  S
O124        C710   1.278       .  A
O125       Ni130   1.898       .  S
O125        C134   1.279       .  A
O126       Ni130   1.905   1_556  S
O126        C133   1.274       .  A
O127       Ni130   1.921       .  S
O127        C132   1.283   1_554  A
O128       Ni130   1.925   1_655  S
O128        C131   1.283       .  A
Ni129      Ni706   2.389   1_546  S
Ni130      Ni705   2.390   1_554  S
C131        O697   1.282   1_554  A
C131        C472   1.492       .  S
C132        O698   1.283       .  A
C132        C928   1.494       .  S
C133        O699   1.281       .  A
C133        C364   1.451       .  S
C134        O700   1.277       .  A
C134        C373   1.455       .  S
O135       Ni143   1.916       .  S
O135        C721   1.281       .  A
O136       Ni143   1.917   1_655  S
O136        C722   1.282   1_545  A
O137       Ni143   1.902   1_565  S
O137        C723   1.281       .  A
O138       Ni143   1.913       .  S
O138        C724   1.277       .  A
O139       Ni144   1.904       .  S
O139        C148   1.280       .  A
O140       Ni144   1.910       .  S
O140        C147   1.276       .  A
O141       Ni144   1.913   1_655  S
O141        C146   1.282       .  A
O142       Ni144   1.914       .  S
O142        C145   1.282       .  A
Ni143      Ni720   2.391   1_545  S
Ni144      Ni719   2.391       .  S
C145        O711   1.282       .  A
C145        C913   1.486       .  S
C146        O712   1.282       .  A
C146        C433   1.485       .  S
C147        O713   1.281       .  A
C147        C361   1.453       .  S
C148        O714   1.276       .  A
C148        C376   1.456       .  S
C149        C151   1.541       .  S
C149        C153   1.543       .  S
C149        C152   1.549       .  S
C149        C313   1.541       .  S
C150        C154   1.542       .  S
C150        C156   1.533       .  S
C150        C155   1.541       .  S
C150        C325   1.535       .  S
C151        C159   1.381       .  A
C151        C154   1.404   1_556  A
C152        C163   1.380       .  A
C152        C155   1.394   1_556  A
C153        C167   1.383       .  A
C153        C156   1.391   1_556  A
C154        C157   1.384       .  A
C155        C161   1.379       .  A
C156        C164   1.375       .  A
C157        N158   1.355   1_554  A
C157        H170   1.081       .  S
N158        C159   1.357       .  A
N158        C292   1.445       .  S
C159        H160   1.082       .  S
C161        N162   1.360   1_554  A
C161        H171   1.081       .  S
N162        C163   1.361       .  A
N162        C397   1.449       .  S
C163        H169   1.080       .  S
C164        N165   1.359   1_554  A
C164        H166   1.083       .  S
N165        C167   1.361       .  A
N165        C304   1.442       .  S
C167        H168   1.081       .  S
C172        C174   1.540       .  S
C172        C176   1.534       .  S
C172        C175   1.547       .  S
C172        C328   1.536       .  S
C173        C177   1.537       .  S
C173        C179   1.544       .  S
C173        C178   1.547       .  S
C173        C316   1.542       .  S
C174        C182   1.379       .  A
C174        C177   1.392       .  A
C175        C186   1.381       .  A
C175        C178   1.400       .  A
C176        C190   1.379       .  A
C176        C179   1.398       .  A
C177        C180   1.378       .  A
C178        C184   1.381       .  A
C179        C187   1.381       .  A
C180        N181   1.360       .  A
C180        H193   1.082       .  S
N181        C182   1.358       .  A
N181        C268   1.441       .  S
C182        H183   1.081       .  S
C184        N185   1.358       .  A
C184        H194   1.081       .  S
N185        C186   1.357       .  A
N185        C388   1.441       .  S
C186        H192   1.082       .  S
C187        N188   1.356       .  A
C187        H189   1.081       .  S
N188        C190   1.356       .  A
N188        C277   1.442       .  S
C190        H191   1.082       .  S
C195        C197   1.544       .  S
C195        C198   1.548       .  S
C195        C253   1.540       .  S
C195        C775   1.540       .  S
C196        C200   1.547       .  S
C196        C201   1.537       .  S
C196        C241   1.536       .  S
C196        C778   1.541       .  S
C197        C205   1.378       .  A
C197        C200   1.396   1_554  A
C198        C209   1.383       .  A
C198        C201   1.395   1_554  A
C199        C771   1.539       .  S
C199        C213   1.382       .  A
C199        C202   1.393   1_554  A
C200        C203   1.383       .  A
C201        C207   1.382       .  A
C202        C772   1.542       .  S
C202        C210   1.377       .  A
C203        N204   1.358       .  A
C203        H216   1.081       .  S
N204        C205   1.358   1_556  A
N204        C301   1.443       .  S
C205        H206   1.080       .  S
C207        N784   1.359       .  A
C207        H793   1.082       .  S
N208        C783   1.359       .  A
N208        C785   1.360   1_556  A
N208        C349   1.446       .  S
C209        N784   1.359   1_554  A
C209        H791   1.081       .  S
C210        N211   1.358       .  A
C210        H212   1.081       .  S
N211        C213   1.362   1_556  A
N211        C289   1.444       .  S
C213        H214   1.082       .  S
H215        C785   1.081       .  S
H217        C783   1.082       .  S
C218        C220   1.547       .  S
C218        C221   1.530       .  S
C218        C244   1.536       .  S
C218        C798   1.544       .  S
C219        C223   1.544       .  S
C219        C224   1.544       .  S
C219        C256   1.538       .  S
C219        C801   1.535       .  S
C220        C228   1.378       .  A
C220        C223   1.399       .  A
C221        C232   1.373       .  A
C221        C224   1.393       .  A
C222        C794   1.545       .  S
C222        C236   1.382       .  A
C222        C225   1.393       .  A
C223        C226   1.379       .  A
C224        C230   1.381       .  A
C225        C795   1.533       .  S
C225        C233   1.375       .  A
C226        N227   1.358       .  A
C226        H239   1.082       .  S
N227        C228   1.359       .  A
N227        C280   1.441       .  S
C228        H229   1.081       .  S
C230        N807   1.360       .  A
C230        H816   1.080       .  S
N231        C806   1.360       .  A
N231        C808   1.356       .  A
N231        C340   1.439       .  S
C232        N807   1.355       .  A
C232        H814   1.083       .  S
C233        N234   1.358       .  A
C233        H235   1.082       .  S
N234        C236   1.360       .  A
N234        C265   1.443       .  S
C236        H237   1.081       .  S
H238        C808   1.083       .  S
H240        C806   1.080       .  S
C241        C242   1.407       .  A
C241        C822   1.413       .  A
C242        C243   1.406       .  A
C242        H247   1.081       .  S
C243        C244   1.415       .  A
C243        O248   1.375       .  S
C244        C821   1.408       .  A
C245        C246   1.406       .  A
C245        C820   1.408       .  A
C245        H249   1.080       .  S
C246        C817   1.413       .  A
C246        O250   1.376       .  S
O248        H252   0.992       .  S
O250        H251   0.993       .  S
C253        C258   1.414       .  A
C253        C830   1.406       .  A
C254        C255   1.407       .  A
C254        C829   1.407       .  A
C254        H259   1.080       .  S
C255        C832   1.414       .  A
C255        O260   1.374       .  S
C256        C257   1.409       .  A
C256        C831   1.414       .  A
C257        C258   1.408       .  A
C257        H261   1.082       .  S
C258        O262   1.376       .  S
O260        H264   0.992       .  S
O262        H263   0.992       .  S
C265        C266   1.406       .  A
C265        C270   1.411       .  A
C266        C267   1.402       .  A
C266        H271   1.083       .  S
C267        C268   1.408       .  A
C267        O272   1.371       .  S
C268        C269   1.404       .  A
C269        C270   1.399       .  A
C269        H273   1.083       .  S
C270        O274   1.371       .  S
O272        H276   0.992       .  S
O274        H275   0.992       .  S
C277        C278   1.406       .  A
C277        C282   1.411       .  A
C278        C279   1.402       .  A
C278        H283   1.083       .  S
C279        C280   1.410       .  A
C279        O284   1.371       .  S
C280        C281   1.404       .  A
C281        C282   1.397       .  A
C281        H285   1.083       .  S
C282        O286   1.371       .  S
O284        H288   0.992       .  S
O286        H287   0.992       .  S
C289        C290   1.405       .  A
C289        C294   1.409   1_556  A
C290        C291   1.398       .  A
C290        H295   1.083       .  S
C291        C292   1.409       .  A
C291        O296   1.371       .  S
C292        C293   1.409   1_556  A
C293        C294   1.404       .  A
C293        H297   1.082       .  S
C294        O298   1.371       .  S
O296        H300   0.992       .  S
O298        H299   0.992       .  S
C301        C302   1.406       .  A
C301        C306   1.409   1_556  A
C302        C303   1.404       .  A
C302        H307   1.083       .  S
C303        C304   1.410       .  A
C303        O308   1.371       .  S
C304        C305   1.404   1_556  A
C305        C306   1.398       .  A
C305        H309   1.083       .  S
C306        O310   1.371       .  S
O308        H312   0.992       .  S
O310        H311   0.992       .  S
C313        C314   1.410       .  A
C313        C318   1.413       .  A
C314        C315   1.408       .  A
C314        H319   1.079       .  S
C315        C316   1.412       .  A
C315        O320   1.375       .  S
C316        C317   1.410       .  A
C317        C318   1.407       .  A
C317        H321   1.080       .  S
C318        O322   1.375       .  S
O320        H324   0.992       .  S
O322        H323   0.992       .  S
C325        C326   1.407       .  A
C325        C330   1.412       .  A
C326        C327   1.405       .  A
C326        H331   1.081       .  S
C327        C328   1.413       .  A
C327        O332   1.375       .  S
C328        C329   1.409       .  A
C329        C330   1.405       .  A
C329        H333   1.080       .  S
C330        O334   1.375       .  S
O332        H336   0.992       .  S
O334        H335   0.992       .  S
C337        C342   1.415       .  A
C337        C914   1.408   1_545  A
C337        C721   1.489       .  S
C338        C339   1.400       .  A
C338        C913   1.408       .  A
C338        H343   1.083       .  S
C339        C916   1.406       .  A
C339        O344   1.372       .  S
C340        C341   1.403       .  A
C340        C915   1.406   1_545  A
C341        C342   1.400       .  A
C341        H345   1.083       .  S
C342        O346   1.372       .  S
O344        H348   0.992       .  S
O346        H347   0.992       .  S
C349        C354   1.410       .  A
C349        C926   1.403   1_546  A
C350        C351   1.400       .  A
C350        C925   1.402   1_554  A
C350        H355   1.083       .  S
C351        C928   1.415   1_554  A
C351        O356   1.371       .  S
C352        C353   1.410       .  A
C352        C927   1.415   1_546  A
C352        C708   1.498       .  S
C353        C354   1.407       .  A
C353        H357   1.083       .  S
C354        O358   1.371       .  S
O356        H360   0.992       .  S
O358        H359   0.992       .  S
C361        C362   1.400       .  A
C361        C942   1.405   1_455  A
C362        C363   1.396       .  A
C362        H367   1.084       .  S
C363        C364   1.404       .  A
C363        O368   1.374       .  S
C364        C941   1.399   1_455  A
C365        C366   1.393       .  A
C365        C940   1.399   1_655  A
C365        H369   1.084       .  S
C366        C937   1.404   1_655  A
C366        O370   1.372       .  S
O368        H372   0.992       .  S
O370        H371   0.991       .  S
C373        C378   1.406   1_455  A
C373        C950   1.401       .  A
C374        C375   1.396       .  A
C374        C949   1.401       .  A
C374        H379   1.084       .  S
C375        C952   1.405       .  A
C375        O380   1.373       .  S
C376        C377   1.400   1_455  A
C376        C951   1.405       .  A
C377        C378   1.396       .  A
C377        H381   1.084       .  S
C378        O382   1.372       .  S
O380        H384   0.993       .  S
O382        H383   0.991       .  S
C385        C386   1.409       .  A
C385        C390   1.415       .  A
C386        C387   1.403       .  A
C386        H391   1.083       .  S
C387        C388   1.407       .  A
C387        O392   1.372       .  S
C388        C389   1.403       .  A
C389        C390   1.402       .  A
C389        H393   1.083       .  S
C390        O394   1.371       .  S
O392        H396   0.992       .  S
O394        H395   0.992       .  S
C397        C398   1.409   1_556  A
C397        C402   1.412       .  A
C398        C399   1.404       .  A
C398        H403   1.082       .  S
C399        C400   1.410       .  A
C399        O404   1.372       .  S
C400        C401   1.404   1_554  A
C401        C402   1.400       .  A
C401        H405   1.084       .  S
C402        O406   1.372       .  S
O404        H408   0.992       .  S
O406        H407   0.992       .  S
C409        C410   1.400       .  A
C409        C414   1.404       .  A
C410        C411   1.398       .  A
C410        H415   1.084       .  S
C411        C412   1.405       .  A
C411        O416   1.373       .  S
C412        C413   1.401       .  A
C413        C414   1.396       .  A
C413        H417   1.084       .  S
C414        O418   1.373       .  S
O416        H420   0.992       .  S
O418        H419   0.992       .  S
C421        C422   1.401       .  A
C421        C426   1.406       .  A
C422        C423   1.396       .  A
C422        H427   1.084       .  S
C423        C424   1.404       .  A
C423        O428   1.373       .  S
C424        C425   1.400       .  A
C425        C426   1.396       .  A
C425        H429   1.084       .  S
C426        O430   1.372       .  S
O428        H432   0.992       .  S
O430        H431   0.991       .  S
C433        C434   1.408       .  A
C433       C1014   1.414       .  A
C434        C435   1.400       .  A
C434        H439   1.083       .  S
C435        C436   1.405       .  A
C435        O440   1.372       .  S
C436       C1013   1.402       .  A
C437        C438   1.400   1_565  A
C437       C1012   1.402       .  A
C437        H441   1.083   1_565  S
C438       C1009   1.414   1_545  A
C438        O442   1.372       .  S
O440        H444   0.992       .  S
O442        H443   0.992       .  S
C445        C446   1.406       .  A
C445       C1026   1.415       .  A
C446        C447   1.408       .  A
C446        H451   1.081   1_565  S
C447        C448   1.416       .  A
C447        O452   1.375   1_565  S
C448       C1025   1.407       .  A
C449        C450   1.406       .  A
C449       C1024   1.406       .  A
C449        H453   1.082       .  S
C450       C1021   1.415       .  A
C450        O454   1.375       .  S
O452        H456   0.993       .  S
O454        H455   0.992       .  S
C457        C458   1.407       .  A
C457       C1038   1.414       .  A
C458        C459   1.406       .  A
C458        H463   1.081       .  S
C459        C460   1.414       .  A
C459        O464   1.375       .  S
C460       C1037   1.408       .  A
C461        C462   1.407       .  A
C461       C1036   1.408       .  A
C461        H465   1.081       .  S
C462       C1033   1.414       .  A
C462        O466   1.375       .  S
O464        H468   0.992   1_565  S
O466        H467   0.992       .  S
C469        C474   1.406       .  A
C469       C1046   1.401   1_554  A
C470        C471   1.401   1_565  A
C470       C1045   1.403   1_556  A
C470        H475   1.083   1_565  S
C471       C1048   1.415   1_546  A
C471        O476   1.371       .  S
C472        C473   1.409       .  A
C472       C1047   1.415   1_554  A
C473        C474   1.404       .  A
C473        H477   1.083       .  S
C474        O478   1.371       .  S
O476        H480   0.992       .  S
O478        H479   0.992       .  S
C481        C482   1.404       .  A
C481        C486   1.413       .  A
C482        C483   1.402       .  A
C482        H487   1.083       .  S
C483        C484   1.413       .  A
C483        O488   1.371       .  S
C484        C485   1.404       .  A
C485        C486   1.402       .  A
C485        H489   1.083       .  S
C486        O490   1.371       .  S
O488        H492   0.992       .  S
O490        H491   0.992       .  S
C493        C494   1.407       .  A
C493        C498   1.411       .  A
C494        C495   1.404       .  A
C494        H499   1.083       .  S
C495        C496   1.412       .  A
C495        O500   1.371       .  S
C496        C497   1.404       .  A
C497        C498   1.399       .  A
C497        H501   1.083       .  S
C498        O502   1.371       .  S
O500        H504   0.992       .  S
O502        H503   0.992       .  S
C505        C506   1.405       .  A
C505        C510   1.412       .  A
C506        C507   1.400       .  A
C506        H511   1.083       .  S
C507        C508   1.413       .  A
C507        O512   1.371       .  S
C508        C509   1.409       .  A
C509        C510   1.407       .  A
C509        H513   1.083       .  S
C510        O514   1.371       .  S
O512        H516   0.992       .  S
O514        H515   0.992       .  S
C517        C518   1.402       .  A
C517        C522   1.410   1_554  A
C518        C519   1.397       .  A
C518        H523   1.083       .  S
C519        C520   1.410       .  A
C519        O524   1.372       .  S
C520        C521   1.405   1_554  A
C521        C522   1.404       .  A
C521        H525   1.083       .  S
C522        O526   1.372       .  S
O524        H528   0.992       .  S
O526        H527   0.992       .  S
C529        C530   1.404       .  A
C529        C534   1.412   1_554  A
C530        C531   1.401       .  A
C530        H535   1.083       .  S
C531        C532   1.414       .  A
C531        O536   1.371       .  S
C532        C533   1.403   1_554  A
C533        C534   1.399       .  A
C533        H537   1.082       .  S
C534        O538   1.371       .  S
O536        H540   0.992       .  S
O538        H539   0.992       .  S
C541        C542   1.409       .  A
C541        C546   1.412       .  A
C542        C543   1.407       .  A
C542        H547   1.081       .  S
C543        C544   1.413       .  A
C543        O548   1.375       .  S
C544        C545   1.409       .  A
C545        C546   1.408       .  A
C545        H549   1.081       .  S
C546        O550   1.375       .  S
O548        H552   0.992       .  S
O550        H551   0.992       .  S
C553        C554   1.407       .  A
C553        C558   1.414       .  A
C554        C555   1.406       .  A
C554        H559   1.081       .  S
C555        C556   1.413       .  A
C555        O560   1.375       .  S
C556        C557   1.408       .  A
C557        C558   1.407       .  A
C557        H561   1.081       .  S
C558        O562   1.375       .  S
O560        H564   0.992       .  S
O562        H563   0.992       .  S
C565        C566   1.402   1_554  A
C565        C570   1.410       .  A
C566        C567   1.399       .  A
C566        H571   1.083       .  S
C567        C568   1.415       .  A
C567        O572   1.372       .  S
C568        C569   1.408   1_556  A
C569        C570   1.403       .  A
C569        H573   1.083       .  S
C570        O574   1.371       .  S
O572        H576   0.992       .  S
O574        H575   0.992       .  S
C577        C579   1.548       .  S
C577        C581   1.535       .  S
C577        C580   1.549       .  S
C577       C1117   1.540       .  S
C578        C582   1.540       .  S
C578        C584   1.528       .  S
C578        C583   1.545       .  S
C578       C1129   1.538       .  S
C579        C587   1.382       .  A
C579        C582   1.397   1_556  A
C580        C591   1.383       .  A
C580        C583   1.403   1_556  A
C581        C595   1.380       .  A
C581        C584   1.389   1_556  A
C582        C585   1.376       .  A
C583        C589   1.384       .  A
C584        C592   1.372       .  A
C585        N586   1.357       .  A
C585        H598   1.081       .  S
N586        C587   1.362   1_554  A
N586       C1108   1.445       .  S
C587        H588   1.081       .  S
C589        N590   1.356       .  A
C589        H599   1.081       .  S
N590        C591   1.356   1_554  A
N590       C1141   1.444   1_554  S
C591        H597   1.082       .  S
C592        N593   1.359       .  A
C592        H594   1.082       .  S
N593        C595   1.361   1_554  A
N593       C1096   1.441       .  S
C595        H596   1.082       .  S
C600        C602   1.549       .  S
C600        C604   1.534       .  S
C600        C603   1.546       .  S
C600       C1132   1.537       .  S
C601        C605   1.547       .  S
C601        C607   1.532       .  S
C601        C606   1.545       .  S
C601       C1120   1.538       .  S
C602        C610   1.384       .  A
C602        C605   1.406       .  A
C603        C614   1.383       .  A
C603        C606   1.395       .  A
C604        C618   1.381       .  A
C604        C607   1.386       .  A
C605        C608   1.385       .  A
C606        C612   1.379       .  A
C607        C615   1.377       .  A
C608        N609   1.357       .  A
C608        H621   1.082       .  S
N609        C610   1.357       .  A
N609       C1069   1.448       .  S
C610        H611   1.082       .  S
C612        N613   1.361       .  A
C612        H622   1.081       .  S
N613        C614   1.362       .  A
N613       C1081   1.450       .  S
C614        H620   1.079       .  S
C615        N616   1.361       .  A
C615        H617   1.082       .  S
N616        C618   1.362       .  A
N616       C1060   1.446       .  S
C618        H619   1.083       .  S
C623        C625   1.541       .  S
C623        C626   1.546       .  S
C623       C1036   1.536       .  S
C624        C628   1.533       .  S
C624        C629   1.548       .  S
C624       C1021   1.539       .  S
C625        C633   1.378       .  A
C625        C628   1.393   1_554  A
C626        C629   1.401   1_554  A
C627        C641   1.380       .  A
C627        C630   1.393   1_554  A
C628        C631   1.377       .  A
C630        C638   1.379       .  A
C631        N632   1.358   1_556  A
C631        H644   1.082       .  S
N632        C633   1.358       .  A
N632       C1093   1.439       .  S
C633        H634   1.082       .  S
C635        N636   1.358   1_556  A
C635        H645   1.081       .  S
N636        C637   1.359       .  A
N636       C1045   1.443       .  S
C637        H643   1.082       .  S
C638        N639   1.358   1_556  A
C638        H640   1.081       .  S
N639        C641   1.360       .  A
N639       C1105   1.444       .  S
C641        H642   1.082       .  S
C646        C648   1.539       .  S
C646        C649   1.546       .  S
C646       C1024   1.540       .  S
C647        C651   1.543       .  S
C647        C652   1.542       .  S
C647       C1033   1.538       .  S
C648        C656   1.380       .  A
C648        C651   1.394       .  A
C649        C652   1.398       .  A
C650        C664   1.384       .  A
C650        C653   1.393       .  A
C651        C654   1.380       .  A
C653        C661   1.376       .  A
C654        N655   1.358       .  A
C654        H667   1.081       .  S
N655        C656   1.361       .  A
N655       C1057   1.445       .  S
C656        H657   1.082       .  S
C658        N659   1.356       .  A
C658        H668   1.081       .  S
N659        C660   1.356       .  A
N659       C1012   1.439       .  S
C660        H666   1.080       .  S
C661        N662   1.360       .  A
C661        H663   1.082       .  S
N662        C664   1.362       .  A
N662       C1072   1.447       .  S
C664        H665   1.081       .  S
O669       Ni677   1.913       .  S
O669        C679   1.281       .  A
O670       Ni677   1.915       .  S
O670        C680   1.281   1_556  A
O671       Ni677   1.908       .  S
O671        C681   1.281       .  A
O672       Ni677   1.916   1_554  S
O672        C682   1.277       .  A
O673       Ni678   1.896       .  S
O673        C682   1.280       .  A
O674       Ni678   1.910   1_556  S
O674        C681   1.276       .  A
O675       Ni678   1.931       .  S
O675        C680   1.284       .  A
O676       Ni678   1.926       .  S
O676        C679   1.284   1_554  A
Ni677      Ni678   2.390   1_556  S
C679       C1144   1.490       .  S
C680        C976   1.489       .  S
C681        C985   1.456       .  S
C682        C997   1.455       .  S
O683       Ni691   1.926       .  S
O683        C693   1.283       .  A
O684       Ni691   1.923       .  S
O684        C694   1.283       .  A
O685       Ni691   1.918       .  S
O685        C695   1.278       .  A
O686       Ni691   1.909       .  S
O686        C696   1.282       .  A
O687       Ni692   1.906       .  S
O687        C696   1.275       .  A
O688       Ni692   1.895       .  S
O688        C695   1.279       .  A
O689       Ni692   1.921       .  S
O689        C694   1.282       .  A
O690       Ni692   1.922       .  S
O690        C693   1.283       .  A
Ni691      Ni692   2.390       .  S
C693       C1084   1.493       .  S
C694        C961   1.492       .  S
C695        C988   1.455       .  S
C696       C1000   1.455       .  S
O697       Ni705   1.917   1_655  S
O698       Ni705   1.924       .  S
O699       Ni705   1.903       .  S
O700       Ni705   1.916   1_554  S
O701       Ni706   1.898   1_545  S
O701        C710   1.279       .  A
O702       Ni706   1.904   1_556  S
O702        C709   1.274       .  A
O703       Ni706   1.924       .  S
O703        C708   1.284   1_564  A
O704       Ni706   1.927   1_655  S
O704        C707   1.284       .  A
C707       C1048   1.495       .  S
C709        C940   1.451       .  S
C710        C949   1.457       .  S
O711       Ni719   1.917       .  S
O712       Ni719   1.917   1_655  S
O713       Ni719   1.902       .  S
O714       Ni719   1.913       .  S
O715       Ni720   1.902   1_545  S
O715        C724   1.280       .  A
O716       Ni720   1.909       .  S
O716        C723   1.275       .  A
O717       Ni720   1.919   1_655  S
O717        C722   1.283       .  A
O718       Ni720   1.919       .  S
O718        C721   1.283   1_565  A
C722       C1009   1.488       .  S
C723        C937   1.452       .  S
C724        C952   1.456       .  S
C725        C727   1.542       .  S
C725        C729   1.546       .  S
C725        C728   1.551       .  S
C725        C889   1.541       .  S
C726        C730   1.543       .  S
C726        C732   1.534       .  S
C726        C731   1.542       .  S
C726        C901   1.535       .  S
C727        C735   1.382       .  A
C727        C730   1.402   1_556  A
C728        C739   1.382       .  A
C728        C731   1.394   1_556  A
C729        C743   1.385       .  A
C729        C732   1.390   1_556  A
C730        C733   1.385       .  A
C731        C737   1.380       .  A
C732        C740   1.376       .  A
C733        N734   1.356   1_554  A
C733        H746   1.082       .  S
N734        C735   1.358       .  A
N734        C868   1.446       .  S
C735        H736   1.082       .  S
C737        N738   1.360   1_554  A
C737        H747   1.081       .  S
N738        C739   1.362       .  A
N738        C973   1.451       .  S
C739        H745   1.080       .  S
C740        N741   1.359   1_554  A
C740        H742   1.082       .  S
N741        C743   1.362       .  A
N741        C880   1.445       .  S
C743        H744   1.081       .  S
C748        C750   1.540       .  S
C748        C752   1.535       .  S
C748        C751   1.547       .  S
C748        C904   1.536       .  S
C749        C753   1.537       .  S
C749        C755   1.544       .  S
C749        C754   1.546       .  S
C749        C892   1.542       .  S
C750        C758   1.379       .  A
C750        C753   1.393       .  A
C751        C762   1.381       .  A
C751        C754   1.399       .  A
C752        C766   1.380       .  A
C752        C755   1.397       .  A
C753        C756   1.378       .  A
C754        C760   1.381       .  A
C755        C763   1.381       .  A
C756        N757   1.360       .  A
C756        H769   1.082       .  S
N757        C758   1.359       .  A
N757        C844   1.441       .  S
C758        H759   1.081       .  S
C760        N761   1.358       .  A
C760        H770   1.081       .  S
N761        C762   1.357       .  A
N761        C964   1.442       .  S
C762        H768   1.082       .  S
C763        N764   1.357       .  A
C763        H765   1.081       .  S
N764        C766   1.358       .  A
N764        C853   1.444       .  S
C766        H767   1.082       .  S
C771        C773   1.545       .  S
C771        C774   1.548       .  S
C771        C829   1.539       .  S
C772        C776   1.548       .  S
C772        C777   1.538       .  S
C772        C817   1.537       .  S
C773        C781   1.380   1_545  A
C773        C776   1.396   1_554  A
C774        C785   1.384       .  A
C774        C777   1.395   1_554  A
C775        C789   1.382       .  A
C775        C778   1.394   1_554  A
C776        C779   1.383   1_545  A
C777        C783   1.382       .  A
C778        C786   1.377       .  A
C779        N780   1.359       .  A
C779        H792   1.081       .  S
N780        C781   1.359   1_556  A
N780        C877   1.445       .  S
C781        H782   1.080       .  S
N784        C925   1.443       .  S
C786        N787   1.357       .  A
C786        H788   1.081       .  S
N787        C789   1.362   1_556  A
N787        C865   1.444       .  S
C789        H790   1.082       .  S
C794        C796   1.549       .  S
C794        C797   1.532       .  S
C794        C820   1.537       .  S
C795        C799   1.543       .  S
C795        C800   1.543       .  S
C795        C832   1.537       .  S
C796        C804   1.380   1_545  A
C796        C799   1.399       .  A
C797        C808   1.375       .  A
C797        C800   1.393       .  A
C798        C812   1.382       .  A
C798        C801   1.393       .  A
C799        C802   1.378   1_545  A
C800        C806   1.381       .  A
C801        C809   1.376       .  A
C802        N803   1.358       .  A
C802        H815   1.082       .  S
N803        C804   1.360       .  A
N803        C856   1.443       .  S
C804        H805   1.081       .  S
N807        C916   1.438       .  S
C809        N810   1.359       .  A
C809        H811   1.082       .  S
N810        C812   1.360       .  A
N810        C841   1.443       .  S
C812        H813   1.081       .  S
C817        C818   1.407       .  A
C818        C819   1.406       .  A
C818        H823   1.081   1_545  S
C819        C820   1.414       .  A
C819        O824   1.375   1_545  S
C821        C822   1.406       .  A
C821        H825   1.080       .  S
C822        O826   1.376       .  S
O824        H828   0.992       .  S
O826        H827   0.993       .  S
C829        C834   1.413       .  A
C830        C831   1.407       .  A
C830        H835   1.080       .  S
C831        O836   1.374       .  S
C832        C833   1.409       .  A
C833        C834   1.408       .  A
C833        H837   1.082       .  S
C834        O838   1.376       .  S
O836        H840   0.992       .  S
O838        H839   0.992       .  S
C841        C842   1.406       .  A
C841        C846   1.411       .  A
C842        C843   1.402       .  A
C842        H847   1.083       .  S
C843        C844   1.409       .  A
C843        O848   1.371       .  S
C844        C845   1.404       .  A
C845        C846   1.400       .  A
C845        H849   1.083       .  S
C846        O850   1.371       .  S
O848        H852   0.992       .  S
O850        H851   0.992       .  S
C853        C854   1.406       .  A
C853        C858   1.412       .  A
C854        C855   1.403       .  A
C854        H859   1.082       .  S
C855        C856   1.411       .  A
C855        O860   1.371       .  S
C856        C857   1.404       .  A
C857        C858   1.398       .  A
C857        H861   1.083       .  S
C858        O862   1.371       .  S
O860        H864   0.992       .  S
O862        H863   0.992       .  S
C865        C866   1.405       .  A
C865        C870   1.409   1_556  A
C866        C867   1.399       .  A
C866        H871   1.083       .  S
C867        C868   1.409       .  A
C867        O872   1.371       .  S
C868        C869   1.409   1_556  A
C869        C870   1.405       .  A
C869        H873   1.082       .  S
C870        O874   1.371       .  S
O872        H876   0.992       .  S
O874        H875   0.992       .  S
C877        C878   1.407       .  A
C877        C882   1.410   1_556  A
C878        C879   1.404       .  A
C878        H883   1.083       .  S
C879        C880   1.411       .  A
C879        O884   1.371       .  S
C880        C881   1.405   1_556  A
C881        C882   1.400       .  A
C881        H885   1.083       .  S
C882        O886   1.371       .  S
O884        H888   0.992       .  S
O886        H887   0.992       .  S
C889        C890   1.409       .  A
C889        C894   1.414       .  A
C890        C891   1.408       .  A
C890        H895   1.079       .  S
C891        C892   1.412       .  A
C891        O896   1.375       .  S
C892        C893   1.410       .  A
C893        C894   1.407       .  A
C893        H897   1.080       .  S
C894        O898   1.375       .  S
O896        H900   0.992       .  S
O898        H899   0.992       .  S
C901        C902   1.408       .  A
C901        C906   1.412       .  A
C902        C903   1.405       .  A
C902        H907   1.081       .  S
C903        C904   1.413       .  A
C903        O908   1.375       .  S
C904        C905   1.409       .  A
C905        C906   1.405       .  A
C905        H909   1.080       .  S
C906        O910   1.375       .  S
O908        H912   0.992       .  S
O910        H911   0.992       .  S
C913        C918   1.413       .  A
C914        C915   1.401       .  A
C914        H919   1.083       .  S
C915        O920   1.371       .  S
C916        C917   1.403       .  A
C917        C918   1.399       .  A
C917        H921   1.083       .  S
C918        O922   1.372       .  S
O920        H924   0.992       .  S
O922        H923   0.992       .  S
C925        C930   1.409       .  A
C926        C927   1.402       .  A
C926        H931   1.083       .  S
C927        O932   1.371       .  S
C928        C929   1.410       .  A
C929        C930   1.406       .  A
C929        H933   1.083       .  S
C930        O934   1.371       .  S
O932        H936   0.992       .  S
O934        H935   0.992       .  S
C937        C938   1.400       .  A
C938        C939   1.396       .  A
C938        H943   1.084       .  S
C939        C940   1.404       .  A
C939        O944   1.373       .  S
C941        C942   1.394       .  A
C941        H945   1.084       .  S
C942        O946   1.372       .  S
O944        H948   0.992       .  S
O946        H947   0.991       .  S
C949        C954   1.405   1_455  A
C950        C951   1.396       .  A
C950        H955   1.084       .  S
C951        O956   1.373       .  S
C952        C953   1.400   1_455  A
C953        C954   1.398       .  A
C953        H957   1.084       .  S
C954        O958   1.372       .  S
O956        H960   0.992       .  S
O958        H959   0.991       .  S
C961        C962   1.408       .  A
C961        C966   1.415       .  A
C962        C963   1.403       .  A
C962        H967   1.083       .  S
C963        C964   1.407       .  A
C963        O968   1.372       .  S
C964        C965   1.403       .  A
C965        C966   1.402       .  A
C965        H969   1.083       .  S
C966        O970   1.371       .  S
O968        H972   0.992       .  S
O970        H971   0.992       .  S
C973        C974   1.410   1_556  A
C973        C978   1.412       .  A
C974        C975   1.405       .  A
C974        H979   1.082       .  S
C975        C976   1.411       .  A
C975        O980   1.372       .  S
C976        C977   1.405   1_554  A
C977        C978   1.402       .  A
C977        H981   1.083       .  S
C978        O982   1.372       .  S
O980        H984   0.992       .  S
O982        H983   0.992       .  S
C985        C986   1.400       .  A
C985        C990   1.404       .  A
C986        C987   1.398       .  A
C986        H991   1.084       .  S
C987        C988   1.405       .  A
C987        O992   1.373       .  S
C988        C989   1.402       .  A
C989        C990   1.397       .  A
C989        H993   1.084       .  S
C990        O994   1.373       .  S
O992        H996   0.992       .  S
O994        H995   0.992       .  S
C997        C998   1.401       .  A
C997       C1002   1.406       .  A
C998        C999   1.395       .  A
C998       H1003   1.084       .  S
C999       C1000   1.404       .  A
C999       O1004   1.373       .  S
C1000      C1001   1.400       .  A
C1001      C1002   1.396       .  A
C1001      H1005   1.084       .  S
C1002      O1006   1.372       .  S
O1004      H1008   0.992       .  S
O1006      H1007   0.992       .  S
C1009      C1010   1.408       .  A
C1010      C1011   1.401       .  A
C1010      H1015   1.083       .  S
C1011      C1012   1.406       .  A
C1011      O1016   1.371       .  S
C1013      C1014   1.399       .  A
C1013      H1017   1.083       .  S
C1014      O1018   1.372       .  S
O1016      H1020   0.992       .  S
O1018      H1019   0.992       .  S
C1021      C1022   1.407       .  A
C1022      C1023   1.409       .  A
C1022      H1027   1.081       .  S
C1023      C1024   1.416       .  A
C1023      O1028   1.375       .  S
C1025      C1026   1.406       .  A
C1025      H1029   1.082       .  S
C1026      O1030   1.375       .  S
O1028      H1032   0.993       .  S
O1030      H1031   0.992       .  S
C1033      C1034   1.407       .  A
C1034      C1035   1.405       .  A
C1034      H1039   1.081       .  S
C1035      C1036   1.414       .  A
C1035      O1040   1.375       .  S
C1037      C1038   1.408       .  A
C1037      H1041   1.081       .  S
C1038      O1042   1.375       .  S
O1040      H1044   0.992       .  S
O1042      H1043   0.992       .  S
C1045      C1050   1.407       .  A
C1046      C1047   1.399       .  A
C1046      H1051   1.083       .  S
C1047      O1052   1.371       .  S
C1048      C1049   1.410       .  A
C1049      C1050   1.406       .  A
C1049      H1053   1.083       .  S
C1050      O1054   1.371       .  S
O1052      H1056   0.992       .  S
O1054      H1055   0.992       .  S
C1057      C1058   1.404       .  A
C1057      C1062   1.413       .  A
C1058      C1059   1.402       .  A
C1058      H1063   1.083       .  S
C1059      C1060   1.412       .  A
C1059      O1064   1.371       .  S
C1060      C1061   1.405       .  A
C1061      C1062   1.402       .  A
C1061      H1065   1.083       .  S
C1062      O1066   1.371       .  S
O1064      H1068   0.992       .  S
O1066      H1067   0.992       .  S
C1069      C1070   1.407       .  A
C1069      C1074   1.412       .  A
C1070      C1071   1.405       .  A
C1070      H1075   1.083       .  S
C1071      C1072   1.413       .  A
C1071      O1076   1.371       .  S
C1072      C1073   1.404       .  A
C1073      C1074   1.400       .  A
C1073      H1077   1.083       .  S
C1074      O1078   1.371       .  S
O1076      H1080   0.992       .  S
O1078      H1079   0.992       .  S
C1081      C1082   1.406       .  A
C1081      C1086   1.413       .  A
C1082      C1083   1.401       .  A
C1082      H1087   1.082       .  S
C1083      C1084   1.412       .  A
C1083      O1088   1.372       .  S
C1084      C1085   1.408       .  A
C1085      C1086   1.407       .  A
C1085      H1089   1.083       .  S
C1086      O1090   1.371       .  S
O1088      H1092   0.992       .  S
O1090      H1091   0.992       .  S
C1093      C1094   1.402       .  A
C1093      C1098   1.409   1_554  A
C1094      C1095   1.397       .  A
C1094      H1099   1.083       .  S
C1095      C1096   1.410       .  A
C1095      O1100   1.372       .  S
C1096      C1097   1.405   1_554  A
C1097      C1098   1.405       .  A
C1097      H1101   1.083       .  S
C1098      O1102   1.372       .  S
O1100      H1104   0.992       .  S
O1102      H1103   0.992       .  S
C1105      C1106   1.403       .  A
C1105      C1110   1.412   1_554  A
C1106      C1107   1.402       .  A
C1106      H1111   1.083       .  S
C1107      C1108   1.414       .  A
C1107      O1112   1.371       .  S
C1108      C1109   1.403   1_554  A
C1109      C1110   1.401       .  A
C1109      H1113   1.083       .  S
C1110      O1114   1.371       .  S
O1112      H1116   0.992       .  S
O1114      H1115   0.992       .  S
C1117      C1118   1.410       .  A
C1117      C1122   1.411       .  A
C1118      C1119   1.407       .  A
C1118      H1123   1.081       .  S
C1119      C1120   1.413       .  A
C1119      O1124   1.375       .  S
C1120      C1121   1.409       .  A
C1121      C1122   1.408       .  A
C1121      H1125   1.082       .  S
C1122      O1126   1.374       .  S
O1124      H1128   0.992       .  S
O1126      H1127   0.992       .  S
C1129      C1130   1.408       .  A
C1129      C1134   1.413       .  A
C1130      C1131   1.406       .  A
C1130      H1135   1.081       .  S
C1131      C1132   1.413       .  A
C1131      O1136   1.375       .  S
C1132      C1133   1.409       .  A
C1133      C1134   1.407       .  A
C1133      H1137   1.081       .  S
C1134      O1138   1.375       .  S
O1136      H1140   0.992       .  S
O1138      H1139   0.992       .  S
C1141      C1142   1.403       .  A
C1141      C1146   1.411   1_556  A
C1142      C1143   1.399       .  A
C1142      H1147   1.083       .  S
C1143      C1144   1.414       .  A
C1143      O1148   1.372       .  S
C1144      C1145   1.407   1_556  A
C1145      C1146   1.403       .  A
C1145      H1149   1.083       .  S
C1146      O1150   1.370       .  S
O1148      H1152   0.992       .  S
O1150      H1151   0.992       .  S
