geometry optimzed in LAMMPS
_audit_creation_date              2020-11-30 
_audit_creation_method            'lammps2cif' 
_symmetry_space_group_name_H-M    'P1' 
_symmetry_Int_Tables_number       1 
_symmetry_cell_setting            triclinic 
loop_ 
_symmetry_equiv_pos_as_xyz 
  x,y,z 
_cell_length_a                    32.55486683 
_cell_length_b                    29.297339075705686 
_cell_length_c                    30.39461684683187 
_cell_angle_alpha                 90.03592982375676 
_cell_angle_beta                  70.47115616200627 
_cell_angle_gamma                 90.00240014849538 
loop_ 
_atom_site_label 
_atom_site_type_symbol 
_atom_site_fract_x 
_atom_site_fract_y 
_atom_site_fract_z 
_atom_site_charge 
O1          O  0.25099177  0.99966313  0.98543895    -0.73800
O2          O  0.26160174  0.00973026  0.10675809    -0.73800
O3          O  0.24367163  0.06870632  0.04651914    -0.73900
O4          O  0.26896605  0.94127252  0.04517726    -0.73900
O5          O  0.12181347  0.96833824  0.95541921    -0.73900
O6          O  0.06550194  0.08365844  0.96027704    -0.73800
O7          O  0.09048385  0.03333968  0.02190890    -0.73800
O8          O  0.09702117  0.01879322  0.89459072    -0.73900
Ni9        Ni  0.25380420  0.00440642  0.04725987     1.25400
Ni10       Ni  0.09595911  0.02731195  0.95733185     1.25400
C11         C  0.06573843  0.99899892  0.88558190     0.88400
C12         C  0.29887207  0.01824832  0.11043975     0.88300
C13         C  0.27459272  0.09715883  0.02876995     0.88400
C14         C  0.09852949  0.93230241  0.96753364     0.88500
C15         C  0.23036532  0.42350897  0.94794638     0.80900
N16         N  0.22605629  0.42911976  0.90536784    -0.77400
C17         C  0.21915623  0.47095941  0.88989679     0.83300
N18         N  0.21582633  0.50789188  0.91816067    -0.77400
C19         C  0.22044442  0.50287940  0.96083106     0.83400
N20         N  0.22795370  0.46076776  0.97513924    -0.79100
C21         C  0.19949511  0.61954894  0.01136475     0.80900
N22         N  0.20627434  0.58438776  0.98048269    -0.77400
C23         C  0.21539083  0.54195751  0.99284757     0.83300
N24         N  0.21739783  0.53497318  0.03635368    -0.77400
C25         C  0.21081360  0.57001432  0.06720820     0.83400
N26         N  0.20215527  0.61225438  0.05443622    -0.79100
O27         O  0.24203166  0.47171479  0.52644757    -0.73800
O28         O  0.24456041  0.49021996  0.40078663    -0.73800
O29         O  0.94593512  0.55958935  0.45280441    -0.73900
O30         O  0.22729319  0.41813650  0.46040376    -0.73900
O31         O  0.15704021  0.43769831  0.48788430    -0.73900
O32         O  0.18959628  0.56297034  0.49291487    -0.73800
O33         O  0.17438507  0.50939159  0.42745540    -0.73800
O34         O  0.17246594  0.49191489  0.55347694    -0.73900
Ni35       Ni  0.24584563  0.48001287  0.46267141     1.25400
Ni36       Ni  0.17082923  0.50108857  0.49135504     1.25400
C37         C  0.20735515  0.47956345  0.56101243     0.88400
C38         C  0.20996374  0.50332870  0.39330362     0.88300
C39         C  0.22999763  0.57362368  0.48098202     0.88400
C40         C  0.18688905  0.40740194  0.47324143     0.88500
C41         C  0.09667707  0.08708586  0.42951366     0.80900
N42         N  0.09278657  0.07926329  0.38712594    -0.77400
C43         C  0.08074807  0.03756467  0.37630635     0.83300
N44         N  0.07318398  0.00330119  0.40811944    -0.77400
C45         C  0.07745264  0.01066184  0.45057557     0.83400
N46         N  0.08927640  0.05269619  0.46117136    -0.79100
C47         C  0.04146357  0.89949932  0.50890529     0.80900
N48         N  0.05183124  0.93325998  0.47637386    -0.77400
C49         C  0.06798229  0.97367901  0.48529647     0.83300
N50         N  0.07406346  0.98013435  0.52697945    -0.77400
C51         C  0.06474714  0.94623957  0.55931048     0.83400
N52         N  0.04820813  0.90621300  0.55012298    -0.79100
C53         C  0.23876990  0.70325651  0.47612633    -0.11200
C54         C  0.97893201  0.72553601  0.46736358     0.11400
C55         C  0.99333487  0.68592004  0.48450929    -0.03000
C56         C  0.97436679  0.64381247  0.48042649    -0.05800
C57         C  0.24246875  0.62127127  0.48636318    -0.16500
C58         C  0.22868636  0.65876270  0.46537036     0.02400
C59         C  0.99386165  0.77155421  0.47551554     0.12300
C60         C  0.02761212  0.68828329  0.50835704     0.62900
H61         H  0.98434081  0.61329887  0.49427524     0.12300
C62         C  0.20428110  0.65178229  0.43115105     0.55100
H63         H  0.22747037  0.73253733  0.46165758     0.08100
C64         C  0.02797244  0.79491893  0.44164165    -0.05700
C65         C  0.04233287  0.83677659  0.45402285    -0.06400
C66         C  0.02366314  0.85557772  0.49890321    -0.16000
C67         C  0.98821423  0.83274647  0.53216303    -0.01600
C68         C  0.97372883  0.79123819  0.51943474    -0.09100
C69         C  0.04856060  0.77606154  0.39261904     0.65100
H70         H  0.06875297  0.85498639  0.42875994     0.10600
C71         C  0.19740280  0.83530014  0.62153335     0.63500
H72         H  0.20778155  0.75144251  0.58058119     0.08000
F73         F  0.19799802  0.69251257  0.41120092    -0.19500
F74         F  0.16380376  0.63286621  0.45371405    -0.15700
F75         F  0.22786934  0.62293744  0.39563803    -0.19200
F76         F  0.01201824  0.71356490  0.54896424    -0.22600
F77         F  0.06515092  0.70852773  0.47912360    -0.24100
F78         F  0.03855570  0.64538255  0.52000471    -0.18100
F79         F  0.16437510  0.80322978  0.63616636    -0.20500
F80         F  0.95479998  0.89686844  0.57864175    -0.21700
F81         F  0.99271473  0.84715268  0.60721483    -0.18900
F82         F  0.08305932  0.80275073  0.36611123    -0.19000
F83         F  0.01773485  0.77476647  0.37052136    -0.22800
F84         F  0.06410652  0.73241640  0.39420068    -0.24400
C85         C  0.15392707  0.28353202  0.50128692    -0.11200
C86         C  0.14991607  0.26901804  0.45889129     0.11400
C87         C  0.15848463  0.30006234  0.42112927    -0.03000
C88         C  0.17048955  0.34506557  0.42738266    -0.05800
C89         C  0.17454686  0.35950043  0.46964270    -0.16500
C90         C  0.16670544  0.32843045  0.50713771     0.02400
C91         C  0.13627735  0.22122886  0.45494307     0.12300
C92         C  0.15432801  0.28600789  0.37466871     0.62900
H93         H  0.17613012  0.36967218  0.39945859     0.12300
C94         C  0.17187967  0.34290643  0.55289750     0.55100
H95         H  0.14690782  0.25932917  0.52977102     0.08100
C96         C  0.16609093  0.18430633  0.44613621    -0.05700
C97         C  0.15156816  0.14054776  0.43910436    -0.06400
C98         C  0.10858092  0.13299640  0.44084340    -0.16000
C99         C  0.07840641  0.16950787  0.45113009    -0.01600
C100        C  0.09280695  0.21323907  0.45839413    -0.09100
C101        C  0.21305861  0.19122736  0.44362624     0.65100
H102        H  0.17391109  0.11198518  0.43117153     0.10600
C103        C  0.25933447  0.14731218  0.57542120     0.63500
H104        H  0.07047830  0.24187203  0.46584595     0.08000
F105        F  0.21384478  0.35847347  0.54485670    -0.19500
F106        F  0.16424770  0.30712369  0.58435544    -0.15700
F107        F  0.14274312  0.37754463  0.57284658    -0.19200
F108        F  0.11096792  0.27870259  0.38008723    -0.22600
F109        F  0.17755587  0.24636321  0.35859969    -0.24100
F110        F  0.17025307  0.31929050  0.34091648    -0.18100
F111        F  0.27090753  0.11419401  0.60149319    -0.20500
F112        F  0.23050105  0.12892204  0.55555563    -0.21700
F113        F  0.23807813  0.18196857  0.60537205    -0.18900
F114        F  0.23713810  0.15139285  0.43169233    -0.19000
F115        F  0.21414746  0.20535238  0.48659810    -0.22800
F116        F  0.23275618  0.22392099  0.41050552    -0.24400
C117        C  0.23701175  0.50260499  0.26063134    -0.11200
C118        C  0.21181361  0.53943875  0.25488016     0.11400
C119        C  0.18435292  0.56276589  0.29464889    -0.03000
C120        C  0.18508338  0.54988373  0.33899030    -0.05800
C121        C  0.21116462  0.51369323  0.34491805    -0.16500
C122        C  0.23687776  0.48877076  0.30506362     0.02400
C123        C  0.21192238  0.54959127  0.20692118     0.12300
C124        C  0.15377812  0.60044093  0.29041232     0.62900
H125        H  0.16503257  0.56812969  0.36962789     0.12300
C126        C  0.26252113  0.44656111  0.30909505     0.55100
H127        H  0.25649631  0.48434646  0.22972694     0.08100
C128        C  0.24500111  0.57589919  0.17461859    -0.05700
C129        C  0.24367796  0.58171877  0.12904966    -0.06400
C130        C  0.21057718  0.56201865  0.11530033    -0.16000
C131        C  0.17697416  0.53680796  0.14803995    -0.01600
C132        C  0.17882341  0.53020224  0.19311543    -0.09100
C133        C  0.95159640  0.55310014  0.16837368     0.65100
H134        H  0.92730352  0.55334600  0.09061727     0.10600
C135        C  0.13853609  0.51832178  0.13594862     0.63500
H136        H  0.15417440  0.50989075  0.21829027     0.08000
F137        F  0.97854569  0.46810059  0.32039015    -0.19500
F138        F  0.27848594  0.42333990  0.26712818    -0.15700
F139        F  0.23586305  0.41691156  0.34155453    -0.19200
F140        F  0.12339335  0.58282267  0.27232840    -0.22600
F141        F  0.17705889  0.63449351  0.26122244    -0.24100
F142        F  0.13141117  0.61996778  0.33324730    -0.18100
F143        F  0.10802759  0.49764691  0.17387040    -0.20500
F144        F  0.15274254  0.48633999  0.10084122    -0.21700
F145        F  0.11814129  0.55357993  0.12113476    -0.18900
F146        F  0.97725821  0.57478482  0.12809646    -0.19000
F147        F  0.97628685  0.51898509  0.17864543    -0.22800
F148        F  0.94040999  0.58481255  0.20412459    -0.24400
C149        C  0.24066154  0.45832122  0.66970103    -0.11200
C150        C  0.20377044  0.47395292  0.70512179     0.11400
C151        C  0.16831078  0.49180750  0.69369566    -0.03000
C152        C  0.17005872  0.49072684  0.64672069    -0.05800
C153        C  0.20738688  0.47561041  0.61040621    -0.16500
C154        C  0.24388963  0.46004815  0.62243698     0.02400
C155        C  0.20503465  0.47373863  0.75349928     0.12300
C156        C  0.13010747  0.51441985  0.73054762     0.62900
H157        H  0.14271316  0.50384272  0.63793933     0.12300
C158        C  0.28731010  0.44827593  0.58618734     0.55100
H159        H  0.26777344  0.44620888  0.67961753     0.08100
C160        C  0.19085200  0.43572561  0.78331662    -0.05700
C161        C  0.19400684  0.43764099  0.82832235    -0.06400
C162        C  0.21377376  0.47467852  0.84315686    -0.16000
C163        C  0.23093812  0.51125704  0.81163522    -0.01600
C164        C  0.22513217  0.51056046  0.76770201    -0.09100
C165        C  0.93061273  0.54077944  0.74001840     0.65100
H166        H  0.18218763  0.40920055  0.85191011     0.10600
C167        C  0.25746836  0.54947296  0.82272995     0.63500
H168        H  0.23738779  0.53832061  0.74328495     0.08000
F169        F  0.28247942  0.41256473  0.55855081    -0.19500
F170        F  0.31821665  0.43526981  0.60588640    -0.15700
F171        F  0.30282326  0.48668888  0.55942593    -0.19200
F172        F  0.14479278  0.55230006  0.74802755    -0.22600
F173        F  0.11096556  0.48461221  0.76679425    -0.24100
F174        F  0.09840205  0.52853712  0.71249222    -0.18100
F175        F  0.29010850  0.53129432  0.83713671    -0.20500
F176        F  0.23073518  0.57703000  0.85749884    -0.21700
F177        F  0.27715434  0.57660813  0.78412809    -0.18900
F178        F  0.95588148  0.55835354  0.76468950    -0.19000
F179        F  0.90463960  0.57555217  0.73328591    -0.22800
F180        F  0.95831099  0.52613299  0.69710440    -0.24400
C181        C  0.05341512  0.06259128  0.17338970    -0.11200
C182        C  0.06332065  0.02281272  0.19353130     0.11400
C183        C  0.31146228  0.97720934  0.22294022    -0.03000
C184        C  0.31084076  0.97889526  0.17687020    -0.05800
C185        C  0.30272766  0.01980924  0.15726280    -0.16500
C186        C  0.05050836  0.06230233  0.12820831     0.02400
C187        C  0.06868028  0.02622657  0.24009793     0.12300
C188        C  0.31897786  0.93208098  0.24370067     0.62900
H189        H  0.31602775  0.94813653  0.15596389     0.12300
C190        C  0.04031713  0.10593728  0.10708889     0.55100
H191        H  0.04876678  0.09408518  0.19313305     0.08100
C192        C  0.10748721  0.04305684  0.24552774    -0.05700
C193        C  0.11042939  0.04483719  0.29061965    -0.06400
C194        C  0.07605423  0.03040362  0.33001009    -0.16000
C195        C  0.26166948  0.01117462  0.38137720    -0.01600
C196        C  0.26525544  0.00769300  0.33402379    -0.09100
C197        C  0.14535417  0.05970248  0.20405866     0.65100
H198        H  0.13962081  0.05811275  0.29565266     0.10600
C199        C  0.21894474  0.99945444  0.41925179     0.63500
H200        H  0.23765003  0.99642367  0.32449426     0.08000
F201        F  0.07494342  0.11729496  0.06776589    -0.19500
F202        F  0.03271591  0.14215725  0.13806021    -0.15700
F203        F  0.00349442  0.09969351  0.09474776    -0.19200
F204        F  0.28245678  0.92066936  0.28101287    -0.22600
F205        F  0.11495240  0.94174886  0.20231778    -0.24100
F206        F  0.32712830  0.89693494  0.21143809    -0.18100
F207        F  0.20505788  0.03591918  0.44949295    -0.20500
F208        F  0.22469549  0.96182425  0.44397766    -0.21700
F209        F  0.18639123  0.98937871  0.40086580    -0.18900
F210        F  0.18101562  0.07114897  0.21689417    -0.19000
F211        F  0.13299401  0.09803068  0.18510738    -0.22800
F212        F  0.15814316  0.02602148  0.17032789    -0.24400
C213        C  0.05178318  0.01476881  0.76787717    -0.11200
C214        C  0.07344254  0.97599921  0.74409137     0.11400
C215        C  0.09489615  0.94617235  0.76603443    -0.03000
C216        C  0.09177594  0.95498914  0.81252046    -0.05800
C217        C  0.06865529  0.99274971  0.83673483    -0.16500
C218        C  0.04907288  0.02374659  0.81418114     0.02400
C219        C  0.07149730  0.96678522  0.69686287     0.12300
C220        C  0.12073148  0.90530769  0.74052594     0.62900
H221        H  0.10713593  0.93233156  0.83053512     0.12300
C222        C  0.32592459  0.07171652  0.87037698     0.55100
H223        H  0.03640845  0.03755148  0.74999820     0.08100
C224        C  0.24104486  0.99790516  0.74834215    -0.05700
C225        C  0.03347816  0.94110520  0.64504772    -0.06400
C226        C  0.06897079  0.95361969  0.60581797    -0.16000
C227        C  0.10710751  0.97163841  0.61204756    -0.01600
C228        C  0.10733515  0.97867368  0.65781068    -0.09100
C229        C  0.20753770  0.03172218  0.77739534     0.65100
H230        H  0.22144798  0.00476061  0.68719192     0.10600
C231        C  0.14786520  0.98175831  0.57087791     0.63500
H232        H  0.13555270  0.99365511  0.66357395     0.08000
F233        F  0.30157804  0.09725620  0.90846535    -0.19500
F234        F  0.00957965  0.09229230  0.81072386    -0.15700
F235        F  0.36417920  0.05789539  0.87664764    -0.19200
F236        F  0.15527822  0.92012354  0.70275783    -0.22600
F237        F  0.09437800  0.87714070  0.72496046    -0.24100
F238        F  0.13745160  0.87981280  0.76897284    -0.18100
F239        F  0.18291436  0.99217096  0.58516849    -0.20500
F240        F  0.14068539  0.01859165  0.54602359    -0.21700
F241        F  0.15899735  0.94398308  0.54195705    -0.18900
F242        F  0.18158070  0.04867256  0.75320251    -0.19000
F243        F  0.22837511  0.06811993  0.78980935    -0.22800
F244        F  0.18074361  0.01082962  0.81741385    -0.24400
C245        C  0.16390392  0.83416377  0.99226226    -0.11200
C246        C  0.15349218  0.79920808  0.96654112     0.11400
C247        C  0.12646236  0.80836499  0.93957399    -0.03000
C248        C  0.11000707  0.85285896  0.94015509    -0.05800
C249        C  0.11967949  0.88780189  0.96686924    -0.16500
C250        C  0.14740714  0.87844555  0.99326064     0.02400
C251        C  0.16590756  0.75231458  0.97479468     0.11100
C252        C  0.11459358  0.77114497  0.91109972     0.62900
H253        H  0.08885690  0.86064698  0.92015365     0.12300
C254        C  0.15955349  0.91194406  0.02497206     0.55100
H255        H  0.18386879  0.82616351  0.01359824     0.08100
C256        C  0.20780543  0.73404597  0.95172479    -0.05700
C257        C  0.21676113  0.68939482  0.96295832    -0.06400
C258        C  0.18678046  0.66490931  0.99931967    -0.16000
C259        C  0.14567687  0.68434315  0.02403553    -0.01600
C260        C  0.13563404  0.72752884  0.01050265    -0.09100
C261        C  0.24333550  0.76227897  0.91729058     0.65100
H262        H  0.24783314  0.67395583  0.94464435     0.10600
C263        C  0.11252154  0.65976349  0.06447923     0.63500
H264        H  0.10439635  0.74314796  0.02871824     0.08000
F265        F  0.20432037  0.91637285  0.00978425    -0.19500
F266        F  0.14581332  0.89479031  0.06988490    -0.15700
F267        F  0.14172806  0.95475893  0.02671416    -0.19200
F268        F  0.09160531  0.73687456  0.94023318    -0.22600
F269        F  0.15199131  0.75279521  0.87958119    -0.24100
F270        F  0.08909552  0.78771667  0.88621849    -0.18100
F271        F  0.12804388  0.65644287  0.10150079    -0.20500
F272        F  0.10488422  0.61650709  0.05069248    -0.21700
F273        F  0.07309305  0.68270973  0.08008988    -0.18900
F274        F  0.28135014  0.73747158  0.89810720    -0.19000
F275        F  0.25288169  0.79970753  0.93988119    -0.22800
F276        F  0.22977534  0.77728493  0.88131231    -0.24400
C277        C  0.22328028  0.20676809  0.00316622    -0.11200
C278        C  0.25618274  0.23827908  0.00097458     0.11400
C279        C  0.29309313  0.22455637  0.01222383    -0.03000
C280        C  0.29661943  0.17850768  0.02354045    -0.05800
C281        C  0.26480262  0.14601962  0.02337256    -0.16500
C282        C  0.22697653  0.16050350  0.01355751     0.02400
C283        C  0.25075344  0.28564398  0.98682840     0.12300
C284        C  0.04657023  0.24367098  0.90529164     0.62900
H285        H  0.06548499  0.15812764  0.92617677     0.12300
C286        C  0.19134761  0.12757609  0.01194123     0.55100
H287        H  0.19498461  0.21878428  0.99541536     0.08100
C288        C  0.26162136  0.29823314  0.93946296    -0.05700
C289        C  0.25590134  0.34388793  0.92871446    -0.06400
C290        C  0.23776327  0.37681455  0.96364194    -0.16000
C291        C  0.22514882  0.36324925  0.01140921    -0.01600
C292        C  0.23250573  0.31783994  0.02189323    -0.09100
C293        C  0.27732461  0.26317029  0.90053421     0.65100
H294        H  0.26467079  0.35384254  0.89247979     0.10600
C295        C  0.20220727  0.39519238  0.05145029     0.63500
H296        H  0.22355922  0.30666862  0.05783968     0.08000
F297        F  0.20911271  0.09292615  0.98037296    -0.19500
F298        F  0.15972707  0.14890909  0.99809215    -0.15700
F299        F  0.17096459  0.10928496  0.05578579    -0.19200
F300        F  0.04881232  0.28064178  0.93265079    -0.22600
F301        F  0.03235738  0.25825815  0.86957683    -0.24100
F302        F  0.08832566  0.22644412  0.88541423    -0.18100
F303        F  0.16600462  0.41390222  0.04416461    -0.20500
F304        F  0.23041451  0.42933313  0.05463931    -0.21700
F305        F  0.18798979  0.37278305  0.09398782    -0.18900
F306        F  0.28961216  0.28327497  0.85683229    -0.19000
F307        F  0.24409483  0.23263418  0.90362435    -0.22800
F308        F  0.31281937  0.23955848  0.90410959    -0.24400
O309        O  0.51489613  0.98427971  0.88428258    -0.73800
O310        O  0.51688204  0.00078838  0.00838208    -0.73800
O311        O  0.49841206  0.05430690  0.94584303    -0.73900
O312        O  0.53445481  0.93021274  0.94761630    -0.73900
O313        O  0.33971010  0.95605074  0.01259191    -0.73900
O314        O  0.31435534  0.08371451  0.01391569    -0.73800
O315        O  0.33260232  0.02475865  0.07436289    -0.73800
O316        O  0.32177736  0.01466819  0.95288349    -0.73900
Ni317      Ni  0.51374281  0.99145770  0.94738062     1.25400
Ni318      Ni  0.32966945  0.02042113  0.01241029     1.25400
C319        C  0.28465507  0.00542740  0.94911196     0.88400
C320        C  0.55178407  0.01454331  0.01464591     0.88300
C321        C  0.52706128  0.08585167  0.93269325     0.88400
C322        C  0.30837895  0.92748293  0.02823114     0.88500
C323        C  0.44259227  0.41677072  0.93397824     0.80900
N324        N  0.43457364  0.42944499  0.89481996    -0.77400
C325        C  0.42153284  0.47212695  0.88949336     0.83300
N326        N  0.41694954  0.50337071  0.92349128    -0.77400
C327        C  0.42460161  0.49140967  0.96315125     0.83400
N328        N  0.43760160  0.44818324  0.96830076    -0.79100
C329        C  0.39583834  0.59937332  0.02820113     0.80900
N330        N  0.40499345  0.56800034  0.99358356    -0.77400
C331        C  0.41705269  0.52499415  0.00049908     0.83300
N332        N  0.42046065  0.51331644  0.04234071    -0.77400
C333        C  0.41154191  0.54479360  0.07700680     0.83400
N334        N  0.39947375  0.58746545  0.06972808    -0.79100
O335        O  0.45562754  0.49485543  0.53313373    -0.73800
O336        O  0.45824159  0.48923816  0.40661839    -0.73800
O337        O  0.25975109  0.54316316  0.46689031    -0.73900
O338        O  0.44012517  0.42860519  0.47862978    -0.73900
O339        O  0.37063895  0.44975686  0.50041416    -0.73900
O340        O  0.40521083  0.57571452  0.48327415    -0.73800
O341        O  0.38850725  0.51005664  0.43025293    -0.73800
O342        O  0.38605549  0.51586935  0.55514700    -0.73900
Ni343      Ni  0.45976896  0.49084876  0.46903684     1.25400
Ni344      Ni  0.38513964  0.51352583  0.49318754     1.25400
C345        C  0.42015097  0.50659442  0.56507787     0.88400
C346        C  0.42377538  0.50001064  0.39760675     0.88300
C347        C  0.44595343  0.58548963  0.46851590     0.88400
C348        C  0.39957012  0.41844131  0.49272513     0.88500
C349        C  0.31007850  0.08897382  0.49322741     0.80900
N350        N  0.30807427  0.07905915  0.45047361    -0.77400
C351        C  0.29661265  0.03693687  0.44044796     0.83300
N352        N  0.28813795  0.00371117  0.47327614    -0.77400
C353        C  0.29028603  0.01279654  0.51634479     0.83400
N354        N  0.30131414  0.05560597  0.52634598    -0.79100
C355        C  0.27173601  0.89687998  0.56821826     0.80900
N356        N  0.27834140  0.93186255  0.53727917    -0.77400
C357        C  0.28276275  0.97545008  0.55064219     0.83300
N358        N  0.28104341  0.98386744  0.59523648    -0.77400
C359        C  0.27507971  0.94888402  0.62615932     0.83400
N360        N  0.27040090  0.90570200  0.61244035    -0.79100
C361        C  0.46658254  0.70683466  0.42166331    -0.11200
C362        C  0.26198337  0.71103213  0.50691376     0.11400
C363        C  0.27670680  0.67343493  0.52692138    -0.03000
C364        C  0.26732875  0.62900121  0.51545453    -0.05800
C365        C  0.46013623  0.63355575  0.46087080    -0.16500
C366        C  0.45296120  0.66094098  0.42575335     0.02400
C367        C  0.26585183  0.75880264  0.52156992     0.12300
C368        C  0.30076947  0.68010185  0.56154452     0.62900
H369        H  0.27763916  0.59974225  0.53091056     0.12300
C370        C  0.43180172  0.64145526  0.39233620     0.55100
H371        H  0.45999019  0.72892637  0.39623296     0.08100
C372        C  0.29927596  0.78870548  0.49549967    -0.05700
C373        C  0.30006075  0.83355550  0.51205949    -0.06400
C374        C  0.26831319  0.84923730  0.55318232    -0.16000
C375        C  0.23406345  0.81956318  0.57837335    -0.01600
C376        C  0.23353420  0.77475379  0.56191245    -0.09100
C377        C  0.33313318  0.77371390  0.44986771     0.65100
H378        H  0.32561818  0.85686354  0.49296217     0.10600
C379        C  0.43329130  0.87490498  0.52467326     0.63500
H380        H  0.43254845  0.78503687  0.50293317     0.08000
F381        F  0.43129004  0.67264616  0.35831699    -0.19500
F382        F  0.38925670  0.62912155  0.41663618    -0.15700
F383        F  0.45483693  0.60350482  0.37024124    -0.19200
F384        F  0.27459571  0.70333259  0.60038073    -0.22600
F385        F  0.33851823  0.70478016  0.54127240    -0.24100
F386        F  0.31215727  0.63884957  0.57640387    -0.18100
F387        F  0.39456745  0.85072048  0.54066908    -0.20500
F388        F  0.17947109  0.87530167  0.61192068    -0.21700
F389        F  0.21323925  0.84256511  0.65785629    -0.18900
F390        F  0.36369531  0.80751598  0.43110586    -0.19000
F391        F  0.31281243  0.76349322  0.41777075    -0.22800
F392        F  0.35501473  0.73545075  0.45673757    -0.24400
C393        C  0.38865700  0.29170027  0.52404707    -0.11200
C394        C  0.35907800  0.27765794  0.50210983     0.11400
C395        C  0.33995434  0.31062820  0.48086718    -0.03000
C396        C  0.35418581  0.35620786  0.47868248    -0.05800
C397        C  0.38554542  0.36995814  0.49841591    -0.16500
C398        C  0.40157415  0.33772703  0.52354587     0.02400
C399        C  0.34881150  0.22813058  0.50179481     0.12300
C400        C  0.30438887  0.29778399  0.46105807     0.62900
H401        H  0.34108912  0.38159904  0.46110293     0.12300
C402        C  0.42988538  0.35216510  0.55204210     0.55100
H403        H  0.40158786  0.26611993  0.54157724     0.08100
C404        C  0.37462132  0.19859736  0.46645524    -0.05700
C405        C  0.36172942  0.15279661  0.46649224    -0.06400
C406        C  0.32453147  0.13544816  0.50097371    -0.16000
C407        C  0.29977338  0.16448218  0.53751470    -0.01600
C408        C  0.31253181  0.21058149  0.53733696    -0.09100
C409        C  0.41564836  0.21539769  0.42892904     0.65100
H410        H  0.38039615  0.13005737  0.43893043     0.10600
C411        C  0.48902389  0.15229833  0.49819766     0.63500
H412        H  0.29378852  0.23365634  0.56448141     0.08000
F413        F  0.46970174  0.36812175  0.52326588    -0.19500
F414        F  0.43764412  0.31624027  0.57779648    -0.15700
F415        F  0.40905396  0.38633869  0.58285148    -0.19200
F416        F  0.26921375  0.27970411  0.49603998    -0.22600
F417        F  0.31973209  0.26576287  0.42598782    -0.24100
F418        F  0.28982265  0.33519333  0.44265373    -0.18100
F419        F  0.50520530  0.11693444  0.51761028    -0.20500
F420        F  0.46082462  0.13494015  0.47697257    -0.21700
F421        F  0.46533334  0.18081377  0.53405392    -0.18900
F422        F  0.43568382  0.18122071  0.39761689    -0.19000
F423        F  0.44496766  0.23067528  0.44953463    -0.22800
F424        F  0.40582908  0.25079289  0.40410145    -0.24400
C425        C  0.45026345  0.48785357  0.26646485    -0.11200
C426        C  0.41995980  0.51854523  0.25976293     0.11400
C427        C  0.38996262  0.54129917  0.29791141    -0.03000
C428        C  0.39319360  0.53438944  0.34200584    -0.05800
C429        C  0.42401914  0.50420000  0.34923601    -0.16500
C430        C  0.45264491  0.47965960  0.31099036     0.02400
C431        C  0.41953659  0.52485235  0.21220812     0.12300
C432        C  0.35362345  0.57111703  0.29252617     0.62900
H433        H  0.37109069  0.55257955  0.37143912     0.12300
C434        C  0.48422562  0.44391086  0.31682898     0.55100
H435        H  0.47186753  0.47016590  0.23630357     0.08100
C436        C  0.44631945  0.55764786  0.18201053    -0.05700
C437        C  0.44374368  0.56193756  0.13712691    -0.06400
C438        C  0.41575431  0.53421147  0.12225955    -0.16000
C439        C  0.38918213  0.50127187  0.15258082    -0.01600
C440        C  0.39193227  0.49682203  0.19735921    -0.09100
C441        C  0.28150571  0.59742397  0.18816265     0.65100
H442        H  0.26869508  0.60141609  0.10358849     0.10600
C443        C  0.35700194  0.47235291  0.13843688     0.63500
H444        H  0.37205853  0.47193812  0.22156926     0.08000
F445        F  0.29758146  0.45870036  0.32257969    -0.19500
F446        F  0.50403894  0.42008423  0.27583626    -0.15700
F447        F  0.46206034  0.41270126  0.35057849    -0.19200
F448        F  0.32554495  0.54444233  0.27816144    -0.22600
F449        F  0.37035934  0.60499669  0.25986304    -0.24100
F450        F  0.32967105  0.59196591  0.33410792    -0.18100
F451        F  0.33228720  0.44486104  0.17459854    -0.20500
F452        F  0.37928394  0.44442202  0.10168582    -0.21700
F453        F  0.32891231  0.50011076  0.12502499    -0.18900
F454        F  0.30944069  0.62274068  0.15200566    -0.19000
F455        F  0.30561607  0.56378942  0.19993055    -0.22800
F456        F  0.26436561  0.62610808  0.22598919    -0.24400
C457        C  0.38867306  0.53225222  0.69495637    -0.11200
C458        C  0.41771508  0.50359371  0.70651992     0.11400
C459        C  0.44762974  0.47634636  0.67216301    -0.03000
C460        C  0.44758575  0.47920529  0.62628186    -0.05800
C461        C  0.41836977  0.50772984  0.61419071    -0.16500
C462        C  0.38841552  0.53523890  0.64907112     0.02400
C463        C  0.41429183  0.50075158  0.75571343     0.12300
C464        C  0.47901028  0.44400146  0.68397452     0.62900
H465        H  0.46989754  0.45814662  0.59956961     0.12300
C466        C  0.35662450  0.56806682  0.63872694     0.55100
H467        H  0.36572405  0.55183890  0.72262396     0.08100
C468        C  0.43680513  0.53111622  0.77560288    -0.05700
C469        C  0.43691472  0.52200358  0.82086920    -0.06400
C470        C  0.41431584  0.48430933  0.84601858    -0.16000
C471        C  0.38783745  0.45714366  0.82773643    -0.01600
C472        C  0.38841784  0.46592794  0.78235610    -0.09100
C473        C  0.17504890  0.39229884  0.76660065     0.65100
H474        H  0.45577453  0.54315132  0.83624064     0.10600
C475        C  0.35920011  0.41899584  0.85561501     0.63500
H476        H  0.37018149  0.44445897  0.76649129     0.08000
F477        F  0.33591688  0.59578514  0.67659892    -0.19500
F478        F  0.32473236  0.54388306  0.62801624    -0.15700
F479        F  0.37870102  0.59613110  0.60181836    -0.19200
F480        F  0.45595022  0.41186039  0.71599262    -0.22600
F481        F  0.50570148  0.46816012  0.70269819    -0.24100
F482        F  0.50534662  0.42093259  0.64493892    -0.18100
F483        F  0.33634009  0.43406107  0.90025966    -0.20500
F484        F  0.38452198  0.38184338  0.85803757    -0.21700
F485        F  0.32920248  0.40469037  0.83525059    -0.18900
F486        F  0.16208248  0.35964665  0.80143807    -0.19000
F487        F  0.20844431  0.37400859  0.72968001    -0.22800
F488        F  0.14007181  0.40144171  0.75193049    -0.24400
C489        C  0.29579966  0.05888235  0.22966379    -0.11200
C490        C  0.30410185  0.01806998  0.24934148     0.11400
C491        C  0.57505699  0.99854027  0.12726611    -0.03000
C492        C  0.57639007  0.99452472  0.08072480    -0.05800
C493        C  0.55122489  0.02286395  0.06264391    -0.16500
C494        C  0.29559657  0.06056210  0.18353415     0.02400
C495        C  0.30389757  0.01945127  0.29814836     0.12300
C496        C  0.59913027  0.96432862  0.14721576     0.62900
H497        H  0.59560852  0.96792149  0.05877230     0.12300
C498        C  0.28859370  0.10555235  0.16237464     0.55100
H499        H  0.28984843  0.08956650  0.25077310     0.08100
C500        C  0.34027349  0.03541675  0.30931374    -0.05700
C501        C  0.33670935  0.03864697  0.35648143    -0.06400
C502        C  0.29813305  0.02713580  0.39238516    -0.16000
C503        C  0.51207842  0.02010501  0.28642076    -0.01600
C504        C  0.51630327  0.01524964  0.23907320    -0.09100
C505        C  0.38234689  0.04989834  0.27178054     0.65100
H506        H  0.36397636  0.05115322  0.36591599     0.10600
C507        C  0.47736757  0.99281777  0.32294322     0.63500
H508        H  0.49579158  0.99141761  0.22869462     0.08000
F509        F  0.32518094  0.11585412  0.12463634    -0.19500
F510        F  0.28127626  0.14106473  0.19414487    -0.15700
F511        F  0.25301712  0.10243958  0.14737157    -0.19200
F512        F  0.56925000  0.93771761  0.18027781    -0.22600
F513        F  0.35430563  0.93548392  0.25906983    -0.24100
F514        F  0.62540093  0.93580062  0.11305681    -0.18100
F515        F  0.45272709  0.02143184  0.35811887    -0.20500
F516        F  0.49686145  0.95968897  0.34166363    -0.21700
F517        F  0.44926259  0.97115211  0.30410483    -0.18900
F518        F  0.41343714  0.06416804  0.29066951    -0.19000
F519        F  0.37437691  0.08577573  0.24629293    -0.22800
F520        F  0.39953888  0.01379262  0.24208335    -0.24400
C521        C  0.29468428  0.02180021  0.82147621    -0.11200
C522        C  0.27084915  0.98422875  0.81461509     0.11400
C523        C  0.25160965  0.95363857  0.85183670    -0.03000
C524        C  0.25605011  0.96263175  0.89548460    -0.05800
C525        C  0.28047245  0.99986941  0.90233334    -0.16500
C526        C  0.30003278  0.03025636  0.86481529     0.02400
C527        C  0.27035826  0.97559751  0.76672186     0.12300
C528        C  0.22763628  0.91106159  0.84510850     0.62900
H529        H  0.24169903  0.93956668  0.92431440     0.12300
C530        C  0.48391227  0.04761254  0.82053169     0.55100
H531        H  0.30995219  0.04397152  0.79202280     0.08100
C532        C  0.51480978  0.94941076  0.65294608    -0.05700
C533        C  0.24367934  0.98838988  0.70204435    -0.06400
C534        C  0.27443868  0.95747656  0.67425775    -0.16000
C535        C  0.30426510  0.93589714  0.69250648    -0.01600
C536        C  0.30186037  0.94580031  0.73849863    -0.09100
C537        C  0.48314346  0.92125077  0.69160873     0.65100
H538        H  0.49110050  0.92307751  0.60037343     0.10600
C539        C  0.33914261  0.90340208  0.66331888     0.63500
H540        H  0.32451005  0.93001370  0.75316565     0.08000
F541        F  0.45499376  0.02201869  0.85547948    -0.19500
F542        F  0.33686977  0.09968096  0.83146037    -0.15700
F543        F  0.50550498  0.07837046  0.83956639    -0.19200
F544        F  0.25592891  0.88267548  0.81253485    -0.22600
F545        F  0.19365489  0.92286626  0.82972969    -0.24100
F546        F  0.21058584  0.88664573  0.88614149    -0.18100
F547        F  0.36848446  0.89179604  0.68553748    -0.20500
F548        F  0.36222496  0.92365745  0.62120866    -0.21700
F549        F  0.32002986  0.86362358  0.65512072    -0.18900
F550        F  0.46033847  0.89023514  0.67424036    -0.19000
F551        F  0.45331424  0.94989432  0.72230391    -0.22800
F552        F  0.50521067  0.89697432  0.71568106    -0.24400
C553        C  0.30659362  0.79967571  0.05313200    -0.11200
C554        C  0.34372029  0.78566763  0.01681152     0.11400
C555        C  0.36794367  0.81731334  0.98319436    -0.03000
C556        C  0.35458787  0.86311177  0.98781048    -0.05800
C557        C  0.31824080  0.87795188  0.02521036    -0.16500
C558        C  0.29352264  0.84562055  0.05851710     0.02400
C559        C  0.35900601  0.73856082  0.01808343     0.11100
C560        C  0.40841170  0.80270358  0.94365495     0.62900
H561        H  0.37289561  0.88785404  0.96237281     0.12300
C562        C  0.25486147  0.85918511  0.10076031     0.55100
H563        H  0.28897429  0.77434867  0.07829365     0.08100
C564        C  0.38427876  0.72634062  0.04613525    -0.05700
C565        C  0.39595550  0.68066151  0.04724096    -0.06400
C566        C  0.38360902  0.64681955  0.02141384    -0.16000
C567        C  0.35866570  0.65910714  0.99276488    -0.01600
C568        C  0.34638819  0.70513008  0.99209763    -0.09100
C569        C  0.39975630  0.75925773  0.07604999     0.65100
H570        H  0.41530768  0.67141617  0.06882007     0.10600
C571        C  0.34425107  0.62424571  0.96383054     0.63500
H572        H  0.32674121  0.71556973  0.97127684     0.08000
F573        F  0.23991181  0.82317834  0.13144657    -0.19500
F574        F  0.22086110  0.87335443  0.08656215    -0.15700
F575        F  0.26663000  0.89405882  0.12481593    -0.19200
F576        F  0.39750055  0.76986947  0.91677587    -0.22600
F577        F  0.43861947  0.78474291  0.96179030    -0.24100
F578        F  0.42771893  0.83887488  0.91489407    -0.18100
F579        F  0.31708177  0.64322480  0.94233370    -0.20500
F580        F  0.32183993  0.58900861  0.99202952    -0.21700
F581        F  0.38019667  0.60712386  0.92902574    -0.18900
F582        F  0.44461827  0.75627334  0.06367764    -0.19000
F583        F  0.38127161  0.74692132  0.12243571    -0.22800
F584        F  0.38937297  0.80432893  0.07167820    -0.24400
C585        C  0.46206759  0.19690564  0.94405486    -0.11200
C586        C  0.49537178  0.22894155  0.93674341     0.11400
C587        C  0.53821026  0.21483836  0.93094246    -0.03000
C588        C  0.54699928  0.16784023  0.92896576    -0.05800
C589        C  0.51387380  0.13483067  0.93509265    -0.16500
C590        C  0.47004283  0.14987328  0.94431667     0.02400
C591        C  0.48374797  0.27730511  0.93550592     0.12300
C592        C  0.32883781  0.25831182  0.01139169     0.62900
H593        H  0.32484822  0.16731585  0.03186949     0.12300
C594        C  0.43125198  0.11770671  0.95488695     0.55100
H595        H  0.42947996  0.20950627  0.94948584     0.08100
C596        C  0.48453077  0.29830411  0.89356668    -0.05700
C597        C  0.47314170  0.34442815  0.89485443    -0.06400
C598        C  0.45716493  0.36902831  0.93716213    -0.16000
C599        C  0.45309513  0.34625550  0.97978981    -0.01600
C600        C  0.46787629  0.30095593  0.97781676    -0.09100
C601        C  0.49536251  0.27155339  0.84811380     0.65100
H602        H  0.47567720  0.36115595  0.86235693     0.10600
C603        C  0.43140202  0.36797664  0.02725027     0.63500
H604        H  0.46610709  0.28295324  0.00949634     0.08000
F605        F  0.43698506  0.08765776  0.91847605    -0.19500
F606        F  0.39267293  0.14081137  0.96095483    -0.15700
F607        F  0.42644693  0.09385326  0.99552607    -0.19200
F608        F  0.31171884  0.29336485  0.04259745    -0.22600
F609        F  0.34697614  0.27643358  0.96710955    -0.24100
F610        F  0.36183659  0.23793951  0.02362010    -0.18100
F611        F  0.39060064  0.38399011  0.03011797    -0.20500
F612        F  0.45682115  0.40339468  0.03382541    -0.21700
F613        F  0.42572302  0.33712663  0.06330371    -0.18900
F614        F  0.49330358  0.29858870  0.81156038    -0.19000
F615        F  0.46585808  0.23627986  0.85350209    -0.22800
F616        F  0.53686066  0.25350995  0.83589745    -0.24400
O617        O  0.71618719  0.98326451  0.96087771    -0.73800
O618        O  0.71736116  0.99156475  0.08671056    -0.73800
O619        O  0.70527107  0.05096164  0.02414274    -0.73900
O620        O  0.72754145  0.92297777  0.02418113    -0.73900
O621        O  0.60396270  0.95152887  0.91722106    -0.73900
O622        O  0.56772484  0.07577719  0.91810941    -0.73800
O623        O  0.58685016  0.02121522  0.98008279    -0.73800
O624        O  0.58417062  0.00650393  0.85556995    -0.73900
Ni625      Ni  0.71404822  0.98657366  0.02495687     1.25400
Ni626      Ni  0.58821546  0.01442731  0.91662470     1.25400
C627        C  0.54882224  0.99386065  0.84948968     0.88400
C628        C  0.75339864  0.00029936  0.09348543     0.88300
C629        C  0.73691559  0.07914651  0.00985151     0.88400
C630        C  0.57522806  0.92065598  0.93413231     0.88500
C631        C  0.68681649  0.40885111  0.94643948     0.80900
N632        N  0.68300458  0.41514003  0.90351273    -0.77400
C633        C  0.67395369  0.45700551  0.88978951     0.83300
N634        N  0.66761924  0.49262212  0.91978199    -0.77400
C635        C  0.67118283  0.48707794  0.96267688     0.83400
N636        N  0.68112406  0.44529171  0.97565685    -0.79100
C637        C  0.63999852  0.60263222  0.01092408     0.80900
N638        N  0.65107790  0.56675787  0.98109808    -0.77400
C639        C  0.66176376  0.52589143  0.99529986     0.83300
N640        N  0.66138640  0.52094646  0.03997106    -0.77400
C641        C  0.65066076  0.55692365  0.07006783     0.83400
N642        N  0.64037026  0.59770879  0.05522994    -0.79100
O643        O  0.68363252  0.48619003  0.53240557    -0.73800
O644        O  0.68164309  0.50745629  0.40933189    -0.73800
O645        O  0.47493839  0.55422147  0.46101925    -0.73900
O646        O  0.66432129  0.43482928  0.46718981    -0.73900
O647        O  0.59462602  0.45585022  0.49656473    -0.73900
O648        O  0.62912369  0.57863097  0.50385148    -0.73800
O649        O  0.61184899  0.52749962  0.43754306    -0.73800
O650        O  0.61408320  0.50635150  0.56245771    -0.73900
Ni651      Ni  0.68466637  0.49615413  0.46993554     1.25400
Ni652      Ni  0.60994148  0.51783168  0.50123906     1.25400
C653        C  0.64972387  0.49299661  0.56800837     0.88400
C654        C  0.64663368  0.51992188  0.40260023     0.88300
C655        C  0.66944146  0.58944083  0.49061330     0.88400
C656        C  0.62354974  0.42523803  0.47986099     0.88500
C657        C  0.54282860  0.11060743  0.40534462     0.80900
N658        N  0.54233685  0.10251700  0.36155910    -0.77400
C659        C  0.53813693  0.05938236  0.34722738     0.83300
N660        N  0.53537776  0.02395615  0.37681902    -0.77400
C661        C  0.53630156  0.03152294  0.42052339     0.83400
N662        N  0.54031171  0.07487012  0.43454063    -0.79100
C663        C  0.52025572  0.91535240  0.47158146     0.80900
N664        N  0.52408949  0.95026988  0.44105758    -0.77400
C665        C  0.53357858  0.99307666  0.45234204     0.83300
N666        N  0.53955371  0.00055643  0.49391342    -0.77400
C667        C  0.53683454  0.96564515  0.52400594     0.83400
N668        N  0.52686781  0.92324725  0.51260176    -0.79100
C669        C  0.71729979  0.70918326  0.46710779    -0.11200
C670        C  0.48747363  0.72553572  0.45108432     0.11400
C671        C  0.49608816  0.69747574  0.48511675    -0.03000
C672        C  0.48252621  0.65172331  0.48896037    -0.05800
C673        C  0.68034309  0.63766740  0.49554347    -0.16500
C674        C  0.71229737  0.66227876  0.46020636     0.02400
C675        C  0.49437585  0.77555392  0.44963774     0.12300
C676        C  0.51847228  0.71361586  0.51897184     0.62900
H677        H  0.48856146  0.63011814  0.51514439     0.12300
C678        C  0.74032911  0.63965710  0.41523831     0.55100
H679        H  0.74174148  0.72886689  0.44101311     0.08100
C680        C  0.53303940  0.79656002  0.42042877    -0.05700
C681        C  0.53943072  0.84339175  0.42669142    -0.06400
C682        C  0.50846746  0.86891325  0.46124104    -0.16000
C683        C  0.46849962  0.84840853  0.48805951    -0.01600
C684        C  0.46205246  0.80191406  0.48145107    -0.09100
C685        C  0.56760417  0.76924067  0.38399618     0.65100
H686        H  0.56950283  0.85992343  0.40621305     0.10600
C687        C  0.65349999  0.89624026  0.50317573     0.63500
H688        H  0.65168016  0.80415322  0.49020183     0.08000
F689        F  0.76600332  0.67105031  0.38398516    -0.19500
F690        F  0.71413842  0.61806588  0.39393960    -0.15700
F691        F  0.76765866  0.60800494  0.42487122    -0.19200
F692        F  0.49045945  0.70763513  0.56419671    -0.22600
F693        F  0.53089883  0.75890719  0.51355014    -0.24100
F694        F  0.55546067  0.68760207  0.51272707    -0.18100
F695        F  0.62092381  0.87689803  0.48938256    -0.20500
F696        F  0.42512963  0.91565348  0.50618081    -0.21700
F697        F  0.44668290  0.88375161  0.56233693    -0.18900
F698        F  0.60276249  0.79611995  0.35939031    -0.19000
F699        F  0.54993588  0.75056554  0.35253063    -0.22800
F700        F  0.58273558  0.73449104  0.40529172    -0.24400
C701        C  0.61050283  0.29641934  0.47838487    -0.11200
C702        C  0.58125661  0.29263215  0.45358613     0.11400
C703        C  0.56264149  0.33232595  0.44162584    -0.03000
C704        C  0.57761824  0.37508603  0.45070355    -0.05800
C705        C  0.60893758  0.37894525  0.47298551    -0.16500
C706        C  0.62391552  0.33930512  0.48934239     0.02400
C707        C  0.57090369  0.24650925  0.44049341     0.12300
C708        C  0.52633691  0.32942055  0.42072483     0.62900
H709        H  0.56509187  0.40597924  0.44024004     0.12300
C710        C  0.65180795  0.34260689  0.52030070     0.55100
H711        H  0.62287856  0.26543210  0.48885895     0.08100
C712        C  0.59545980  0.22648467  0.39741606    -0.05700
C713        C  0.58323300  0.18314498  0.38651157    -0.06400
C714        C  0.55039664  0.15760061  0.41896462    -0.16000
C715        C  0.52632913  0.17738171  0.46262681    -0.01600
C716        C  0.53682041  0.22205322  0.47237820    -0.09100
C717        C  0.63547207  0.24997011  0.36405385     0.65100
H718        H  0.60027918  0.16821065  0.35277606     0.10600
C719        C  0.69363749  0.17546248  0.53390837     0.63500
H720        H  0.51892623  0.23813611  0.50532538     0.08000
F721        F  0.69211296  0.36045088  0.49538218    -0.19500
F722        F  0.65805850  0.30045431  0.53738073    -0.15700
F723        F  0.63146970  0.37054815  0.55803236    -0.19200
F724        F  0.49153674  0.30591787  0.45087417    -0.22600
F725        F  0.54041304  0.30678848  0.37845195    -0.24100
F726        F  0.51174399  0.37219788  0.41343928    -0.18100
F727        F  0.69135642  0.14157453  0.56627406    -0.20500
F728        F  0.67645753  0.15922563  0.50098795    -0.21700
F729        F  0.66820347  0.21163732  0.55700581    -0.18900
F730        F  0.65549065  0.22362972  0.32490123    -0.19000
F731        F  0.66550458  0.25775301  0.38638579    -0.22800
F732        F  0.62416206  0.29121632  0.34933057    -0.24400
C733        C  0.67280903  0.50766118  0.27047258    -0.11200
C734        C  0.64525541  0.54057433  0.26199925     0.11400
C735        C  0.61635971  0.56513223  0.29996026    -0.03000
C736        C  0.61792001  0.55751165  0.34521857    -0.05800
C737        C  0.64667634  0.52556640  0.35371812    -0.16500
C738        C  0.67404136  0.49928736  0.31559735     0.02400
C739        C  0.64655138  0.54678355  0.21288967     0.12300
C740        C  0.58374158  0.59878733  0.29270014     0.62900
H741        H  0.59661913  0.57668624  0.37443022     0.12300
C742        C  0.70360163  0.46143552  0.32194662     0.55100
H743        H  0.69361691  0.48847329  0.24095120     0.08100
C744        C  0.67939633  0.57296396  0.18011301    -0.05700
C745        C  0.67930357  0.57598412  0.13385179    -0.06400
C746        C  0.64897943  0.55187569  0.11911747    -0.16000
C747        C  0.61664695  0.52516067  0.15166545    -0.01600
C748        C  0.61593152  0.52315874  0.19821914    -0.09100
C749        C  0.47721609  0.58778698  0.19725573     0.65100
H750        H  0.46320977  0.58734712  0.11333105     0.10600
C751        C  0.58281589  0.49932160  0.13724601     0.63500
H752        H  0.59176530  0.50251984  0.22355577     0.08000
F753        F  0.51670026  0.46454079  0.32969133    -0.19500
F754        F  0.72098401  0.43568359  0.28178401    -0.15700
F755        F  0.68016376  0.43213314  0.35706330    -0.19200
F756        F  0.55484206  0.57603855  0.27591102    -0.22600
F757        F  0.60521751  0.63186954  0.26092303    -0.24100
F758        F  0.55988618  0.62039560  0.33385532    -0.18100
F759        F  0.55236558  0.47822811  0.17485009    -0.20500
F760        F  0.60303340  0.46600108  0.10521558    -0.21700
F761        F  0.56105211  0.52901870  0.11730460    -0.18900
F762        F  0.49919188  0.61823312  0.16271195    -0.19000
F763        F  0.50766558  0.56110420  0.20772370    -0.22800
F764        F  0.45452946  0.61277319  0.23638173    -0.24400
C765        C  0.68244672  0.45469194  0.67294281    -0.11200
C766        C  0.65135702  0.47738751  0.70953097     0.11400
C767        C  0.62154546  0.50729748  0.69957636    -0.03000
C768        C  0.62104532  0.50973723  0.65338391    -0.05800
C769        C  0.65193770  0.48656397  0.61621261    -0.16500
C770        C  0.68459142  0.45989415  0.62618885     0.02400
C771        C  0.65463486  0.47251549  0.75696429     0.12300
C772        C  0.59178033  0.53788339  0.73713645     0.62900
H773        H  0.59736109  0.53141215  0.64573385     0.12300
C774        C  0.72269573  0.43800274  0.58853132     0.55100
H775        H  0.70625027  0.43393909  0.68152178     0.08100
C776        C  0.63529915  0.43566516  0.78686118    -0.05700
C777        C  0.64253283  0.43180955  0.82991383    -0.06400
C778        C  0.66867743  0.46321596  0.84349461    -0.16000
C779        C  0.68930376  0.49912744  0.81266137    -0.01600
C780        C  0.68187759  0.50298319  0.76978047    -0.09100
C781        C  0.46016462  0.57271141  0.74903830     0.65100
H782        H  0.62754185  0.40426874  0.85356489     0.10600
C783        C  0.72012212  0.53248497  0.82398176     0.63500
H784        H  0.69750162  0.52987741  0.74554758     0.08000
F785        F  0.70771689  0.40922974  0.56138196    -0.19500
F786        F  0.74867144  0.41234238  0.60705590    -0.15700
F787        F  0.74860735  0.47164247  0.56106066    -0.19200
F788        F  0.61634674  0.56491140  0.75617967    -0.22600
F789        F  0.56340806  0.51181224  0.77204305    -0.24100
F790        F  0.56758460  0.56663691  0.71931369    -0.18100
F791        F  0.75043174  0.50897309  0.83808426    -0.20500
F792        F  0.69674310  0.56173497  0.85915011    -0.21700
F793        F  0.74271208  0.55869936  0.78562278    -0.18900
F794        F  0.48178037  0.59666783  0.77393592    -0.19000
F795        F  0.43013273  0.60168726  0.74058378    -0.22800
F796        F  0.49025636  0.55975818  0.70680534    -0.24400
C797        C  0.52450740  0.06218025  0.13714471    -0.11200
C798        C  0.54930716  0.03351616  0.15527283     0.11400
C799        C  0.71995254  0.98661982  0.22482807    -0.03000
C800        C  0.72327894  0.98135890  0.17774957    -0.05800
C801        C  0.75391811  0.00603862  0.14187102    -0.16500
C802        C  0.52478563  0.05730774  0.09109429     0.02400
C803        C  0.54690131  0.04060348  0.20420976     0.12300
C804        C  0.68450245  0.96176924  0.26288422     0.62900
H805        H  0.70153871  0.95813221  0.16864854     0.12300
C806        C  0.49737154  0.08904419  0.07280317     0.55100
H807        H  0.50457171  0.08818008  0.15970378     0.08100
C808        C  0.57353616  0.07295705  0.21628724    -0.05700
C809        C  0.56977526  0.07748556  0.26344756    -0.06400
C810        C  0.53988224  0.05138939  0.29854621    -0.16000
C811        C  0.71955501  0.07175783  0.35428443    -0.01600
C812        C  0.71996461  0.05884566  0.30962930    -0.09100
C813        C  0.60540504  0.10280175  0.17956359     0.65100
H814        H  0.59045389  0.10151707  0.27331380     0.10600
C815        C  0.68929462  0.10950713  0.38040722     0.63500
H816        H  0.69913328  0.07609760  0.29357121     0.08000
F817        F  0.52340337  0.10992221  0.03233194    -0.19500
F818        F  0.47771556  0.12293258  0.10465914    -0.15700
F819        F  0.46491923  0.06445648  0.06362094    -0.19200
F820        F  0.65576031  0.99318324  0.29082589    -0.22600
F821        F  0.62523996  0.98660606  0.16801565    -0.24100
F822        F  0.66112385  0.93233121  0.24454384    -0.18100
F823        F  0.71335483  0.14709461  0.38472918    -0.20500
F824        F  0.66411506  0.09451524  0.42429651    -0.21700
F825        F  0.66159407  0.12305853  0.35704687    -0.18900
F826        F  0.62828934  0.13181215  0.19894212    -0.19000
F827        F  0.58302136  0.12930269  0.15750176    -0.22800
F828        F  0.63521992  0.07594487  0.14669142    -0.24400
C829        C  0.51762370  0.01240780  0.74097927    -0.11200
C830        C  0.54782477  0.98431087  0.70893599     0.11400
C831        C  0.57933718  0.96017702  0.72237906    -0.03000
C832        C  0.57824332  0.96377837  0.76887929    -0.05800
C833        C  0.54725361  0.99093750  0.80151308    -0.16500
C834        C  0.51672463  0.01619224  0.78728082     0.02400
C835        C  0.54463015  0.97992105  0.66181502     0.12300
C836        C  0.61351292  0.93072799  0.68771832     0.62900
H837        H  0.60099926  0.94453856  0.78050222     0.12300
C838        C  0.80208932  0.05990707  0.85522204     0.55100
H839        H  0.49427532  0.03090959  0.72939125     0.08100
C840        C  0.71736895  0.01225767  0.72358715    -0.05700
C841        C  0.51381974  0.94629122  0.60740869    -0.06400
C842        C  0.54052443  0.97337940  0.57083737    -0.16000
C843        C  0.56960858  0.00520160  0.58020549    -0.01600
C844        C  0.57106591  0.00769482  0.62595287    -0.09100
C845        C  0.68775087  0.04685174  0.75616234     0.65100
H846        H  0.69242053  0.02506702  0.66709682     0.10600
C847        C  0.59962441  0.03573231  0.54266093     0.63500
H848        H  0.59285410  0.03144541  0.63433330     0.08000
F849        F  0.77738988  0.08364121  0.89451573    -0.19500
F850        F  0.46014459  0.07223150  0.79844677    -0.15700
F851        F  0.83803983  0.04102924  0.86287444    -0.19200
F852        F  0.63785630  0.95712832  0.65051383    -0.22600
F853        F  0.59361133  0.89618922  0.67124618    -0.24100
F854        F  0.64172158  0.91098137  0.70762496    -0.18100
F855        F  0.62843858  0.05964151  0.55880181    -0.20500
F856        F  0.57528956  0.06729979  0.52823267    -0.21700
F857        F  0.62388640  0.00976270  0.50492914    -0.18900
F858        F  0.66086545  0.06861330  0.73581141    -0.19000
F859        F  0.71256235  0.07966322  0.76826694    -0.22800
F860        F  0.66185948  0.02531108  0.79607464    -0.24400
C861        C  0.62704768  0.81399176  0.96490748    -0.11200
C862        C  0.60540576  0.77992634  0.94914623     0.11400
C863        C  0.57435655  0.79198559  0.92796958    -0.03000
C864        C  0.56712322  0.83857806  0.92197230    -0.05800
C865        C  0.58866545  0.87305679  0.93807822    -0.16500
C866        C  0.61903935  0.86043724  0.96055124     0.02400
C867        C  0.61281803  0.73229485  0.96071339     0.11100
C868        C  0.54755501  0.75595053  0.91400117     0.62900
H869        H  0.54330540  0.84852120  0.90595569     0.12300
C870        C  0.64216894  0.89249246  0.98384497     0.55100
H871        H  0.64951919  0.80392350  0.98273065     0.08100
C872        C  0.65085943  0.70772300  0.93551353    -0.05700
C873        C  0.65795440  0.66484559  0.95250151    -0.06400
C874        C  0.62913887  0.64700447  0.99437515    -0.16000
C875        C  0.59049122  0.67115453  0.01863073    -0.01600
C876        C  0.58323475  0.71374166  0.00144782    -0.09100
C877        C  0.68371744  0.72676655  0.89111634     0.65100
H878        H  0.68666004  0.64529194  0.93361495     0.10600
C879        C  0.55667578  0.65189181  0.06198281     0.63500
H880        H  0.55484761  0.73372842  0.02054291     0.08000
F881        F  0.68660144  0.88530134  0.96483702    -0.19500
F882        F  0.62910192  0.88247836  0.03098108    -0.15700
F883        F  0.63419544  0.93801189  0.97950352    -0.19200
F884        F  0.51935513  0.73555551  0.95361306    -0.22600
F885        F  0.57450794  0.72296804  0.88654559    -0.24100
F886        F  0.52309330  0.77451679  0.88893922    -0.18100
F887        F  0.57310461  0.65172280  0.09842384    -0.20500
F888        F  0.54600156  0.60784350  0.05339737    -0.21700
F889        F  0.51874964  0.67753210  0.07550968    -0.18900
F890        F  0.71819204  0.69707103  0.87200526    -0.19000
F891        F  0.70065163  0.76749469  0.90038376    -0.22800
F892        F  0.66362117  0.73431027  0.85827859    -0.24400
C893        C  0.68765915  0.19274674  0.99073227    -0.11200
C894        C  0.72061795  0.22305366  0.99153083     0.11400
C895        C  0.75643347  0.20705216  0.00351289    -0.03000
C896        C  0.76003166  0.15985617  0.01006776    -0.05800
C897        C  0.72816192  0.12874498  0.00684534    -0.16500
C898        C  0.69042587  0.14569994  0.99837541     0.02400
C899        C  0.71592809  0.27145556  0.97973823     0.12300
C900        C  0.57388663  0.24935245  0.92840778     0.62900
H901        H  0.58001934  0.15672381  0.92343012     0.12300
C902        C  0.65358644  0.11487032  0.99597852     0.55100
H903        H  0.65987892  0.20650569  0.98314293     0.08100
C904        C  0.72781633  0.28637237  0.93294605    -0.05700
C905        C  0.71847308  0.33160917  0.92415826    -0.06400
C906        C  0.69727386  0.36233461  0.96033148    -0.16000
C907        C  0.68515028  0.34681936  0.00748446    -0.01600
C908        C  0.69492789  0.30151896  0.01605580    -0.09100
C909        C  0.74944377  0.25428676  0.89242043     0.65100
H910        H  0.72718366  0.34304886  0.88841808     0.10600
C911        C  0.66028289  0.37647462  0.04884145     0.63500
H912        H  0.68538881  0.28859747  0.05143520     0.08000
F913        F  0.66979655  0.08148900  0.96242350    -0.19500
F914        F  0.62199133  0.13876680  0.98436030    -0.15700
F915        F  0.63345618  0.09483716  0.03902337    -0.19200
F916        F  0.56236639  0.27431994  0.96936649    -0.22600
F917        F  0.57957857  0.27895861  0.89147249    -0.24100
F918        F  0.61347939  0.22841398  0.92257316    -0.18100
F919        F  0.62302769  0.39334791  0.04237927    -0.20500
F920        F  0.68640857  0.41207317  0.05354863    -0.21700
F921        F  0.64745087  0.35231028  0.09037228    -0.18900
F922        F  0.75920300  0.27600400  0.84970611    -0.19000
F923        F  0.72197555  0.21817640  0.89289180    -0.22800
F924        F  0.78785990  0.23747111  0.89598160    -0.24400
O925        O  0.03221571  0.98411896  0.91816420    -0.73800
O926        O  0.02559503  0.99893310  0.04577116    -0.73800
O927        O  0.00087432  0.04955535  0.98343076    -0.73900
O928        O  0.05688662  0.93401099  0.97989897    -0.73900
O929        O  0.79899464  0.93618926  0.99589809    -0.73900
O930        O  0.77645592  0.06491909  0.99715757    -0.73800
O931        O  0.78876742  0.00438640  0.05897658    -0.73800
O932        O  0.78744508  0.99730015  0.93415379    -0.73900
Ni933      Ni  0.02651071  0.99048719  0.98273416     1.25400
Ni934      Ni  0.79046057  0.00107684  0.99567272     1.25400
C935        C  0.75158768  0.99028520  0.92674179     0.88400
C936        C  0.05733549  0.01802539  0.05468198     0.88300
C937        C  0.02392296  0.08574804  0.97142294     0.88400
C938        C  0.76681449  0.90841055  0.01014572     0.88500
C939        C  0.89739608  0.39261930  0.93233762     0.80900
N940        N  0.89298495  0.40168380  0.89022436    -0.77400
C941        C  0.87759456  0.44277056  0.88196156     0.83300
N942        N  0.86744890  0.47542426  0.91558918    -0.77400
C943        C  0.87112659  0.46644650  0.95786385     0.83400
N944        N  0.88574598  0.42507083  0.96600562    -0.79100
C945        C  0.84548974  0.57807232  0.01785936     0.80900
N946        N  0.85158445  0.54497902  0.98495407    -0.77400
C947        C  0.86215373  0.50187276  0.99385311     0.83300
N948        N  0.86673672  0.49207772  0.03563011    -0.77400
C949        C  0.86061657  0.52506954  0.06840791     0.83400
N950        N  0.85056461  0.56801218  0.05922773    -0.79100
O951        O  0.91860277  0.49839018  0.52308563    -0.73800
O952        O  0.92297929  0.50112888  0.39586999    -0.73800
O953        O  0.69922144  0.55921946  0.47469013    -0.73900
O954        O  0.89623856  0.44004617  0.46634098    -0.73900
O955        O  0.82948957  0.47012391  0.48805883    -0.73900
O956        O  0.87950806  0.59020818  0.47507304    -0.73800
O957        O  0.85655258  0.53140896  0.41807433    -0.73800
O958        O  0.85200061  0.52831244  0.54542900    -0.73900
Ni959      Ni  0.92332707  0.49883653  0.45865748     1.25400
Ni960      Ni  0.85204853  0.53126601  0.48239698     1.25400
C961        C  0.88422542  0.51199188  0.55548254     0.88400
C962        C  0.89002725  0.51559264  0.38599012     0.88300
C963        C  0.92100793  0.59463223  0.46215592     0.88400
C964        C  0.85480086  0.43537363  0.47983711     0.88500
C965        C  0.75981772  0.11114172  0.47459391     0.80900
N966        N  0.75852080  0.10169353  0.43142044    -0.77400
C967        C  0.74819779  0.05925164  0.42089573     0.83300
N968        N  0.74016410  0.02581642  0.45341119    -0.77400
C969        C  0.74158904  0.03475194  0.49668001     0.83400
N970        N  0.75156085  0.07757981  0.50731898    -0.79100
C971        C  0.72257980  0.91879916  0.54708390     0.80900
N972        N  0.72628826  0.95463090  0.51781858    -0.77400
C973        C  0.73495714  0.99719117  0.53025154     0.83300
N974        N  0.74022820  0.00387357  0.57227901    -0.77400
C975        C  0.73747774  0.96799391  0.60142517     0.83400
N976        N  0.72869250  0.92567052  0.58866710    -0.79100
C977        C  0.94677370  0.72203149  0.44624951    -0.11200
C978        C  0.69189652  0.73143357  0.50803090     0.11400
C979        C  0.65931422  0.70716567  0.54274304    -0.03000
C980        C  0.65439731  0.66044692  0.53597656    -0.05800
C981        C  0.94092514  0.64028775  0.46102730    -0.16500
C982        C  0.92742226  0.67980773  0.44254154     0.02400
C983        C  0.70183542  0.77961090  0.51496602     0.12300
C984        C  0.62920385  0.73068740  0.58617361     0.62900
H985        H  0.62964631  0.64124004  0.56224651     0.12300
C986        C  0.89368184  0.67746017  0.41811934     0.55100
H987        H  0.93614588  0.75299103  0.43379838     0.08100
C988        C  0.73533274  0.79107472  0.53288939    -0.05700
C989        C  0.74154490  0.83715237  0.54146473    -0.06400
C990        C  0.71544340  0.87182346  0.53287840    -0.16000
C991        C  0.68277491  0.86036153  0.51329962    -0.01600
C992        C  0.67665819  0.81405981  0.50456107    -0.09100
C993        C  0.76386124  0.75463708  0.54367487     0.65100
H994        H  0.76701820  0.84650216  0.55513118     0.10600
C995        C  0.96553062  0.85145253  0.58092538     0.63500
H996        H  0.94727609  0.77273500  0.54437457     0.08000
F997        F  0.88966648  0.71872960  0.39773635    -0.19500
F998        F  0.85335833  0.66647259  0.44978646    -0.15700
F999        F  0.90577160  0.64472675  0.38331071    -0.19200
F1000       F  0.60337184  0.76189108  0.57344266    -0.22600
F1001       F  0.65314234  0.75322527  0.60942521    -0.24100
F1002       F  0.60208279  0.69992391  0.61700709    -0.18100
F1003       F  0.92739548  0.82803241  0.60377316    -0.20500
F1004       F  0.67784432  0.92449859  0.46759027    -0.21700
F1005       F  0.63384160  0.92179139  0.54291045    -0.18900
F1006       F  0.79437681  0.77325534  0.56109164    -0.19000
F1007       F  0.78605549  0.73081314  0.50351337    -0.22800
F1008       F  0.73838443  0.72453305  0.57655007    -0.24400
C1009       C  0.82542862  0.31395556  0.52158882    -0.11200
C1010       C  0.80757425  0.29804910  0.48842808     0.11400
C1011       C  0.80157381  0.32847467  0.45483804    -0.03000
C1012       C  0.81583888  0.37392800  0.45430627    -0.05800
C1013       C  0.83623347  0.38899354  0.48566467    -0.16500
C1014       C  0.84032187  0.35910129  0.52053929     0.02400
C1015       C  0.79684703  0.24886373  0.48864830     0.12300
C1016       C  0.78139181  0.31254118  0.41899134     0.62900
H1017       H  0.81270414  0.39763319  0.42827278     0.12300
C1018       C  0.86031542  0.37497295  0.55641636     0.55100
H1019       H  0.82888222  0.29017188  0.54739505     0.08100
C1020       C  0.82868465  0.21628689  0.46488375    -0.05700
C1021       C  0.81545906  0.17094694  0.46253770    -0.06400
C1022       C  0.77208614  0.15743015  0.48428002    -0.16000
C1023       C  0.74077763  0.18937403  0.51017589    -0.01600
C1024       C  0.75386406  0.23489354  0.51220883    -0.09100
C1025       C  0.87634690  0.22935390  0.44243625     0.65100
H1026       H  0.83879436  0.14564953  0.44315640     0.10600
C1027       C  0.03128528  0.16204361  0.45447095     0.63500
H1028       H  0.73047133  0.26028165  0.53112826     0.08000
F1029       F  0.90383817  0.38519583  0.53457466    -0.19500
F1030       F  0.85750063  0.34191592  0.58982126    -0.15700
F1031       F  0.83875502  0.41345655  0.57894822    -0.19200
F1032       F  0.74002897  0.29559920  0.44120400    -0.22600
F1033       F  0.80655688  0.27842261  0.39153243    -0.24100
F1034       F  0.77813457  0.34773569  0.38995506    -0.18100
F1035       F  0.01269081  0.12897287  0.48761604    -0.20500
F1036       F  0.02939793  0.14790416  0.41178070    -0.21700
F1037       F  0.00677751  0.20152344  0.46716592    -0.18900
F1038       F  0.90134454  0.19290693  0.41917284    -0.19000
F1039       F  0.89281980  0.24381014  0.47651829    -0.22800
F1040       F  0.88063381  0.26419686  0.41058171    -0.24400
C1041       C  0.90783518  0.48029628  0.25973648    -0.11200
C1042       C  0.88080576  0.51162712  0.24797879     0.11400
C1043       C  0.85716774  0.54422003  0.28106933    -0.03000
C1044       C  0.86208421  0.54479184  0.32518691    -0.05800
C1045       C  0.88961712  0.51385547  0.33724966    -0.16500
C1046       C  0.91316247  0.48089320  0.30379978     0.02400
C1047       C  0.87880288  0.51056747  0.20009957     0.12300
C1048       C  0.82677699  0.57813440  0.26980979     0.62900
H1049       H  0.84420168  0.56966370  0.35078789     0.12300
C1050       C  0.94337560  0.44603922  0.31404021     0.55100
H1051       H  0.92518321  0.45561167  0.23359794     0.08100
C1052       C  0.91082708  0.53252970  0.16265002    -0.05700
C1053       C  0.90417541  0.53531915  0.11947699    -0.06400
C1054       C  0.86753693  0.51573169  0.11272162    -0.16000
C1055       C  0.83689108  0.49133019  0.14915696    -0.01600
C1056       C  0.84313769  0.48904771  0.19269015    -0.09100
C1057       C  0.71492929  0.59665308  0.19368239     0.65100
H1058       H  0.70352374  0.59651448  0.10849842     0.10600
C1059       C  0.79734921  0.46921528  0.14218344     0.63500
H1060       H  0.81960267  0.47165098  0.22172526     0.08000
F1061       F  0.73801700  0.47998026  0.33295591    -0.19500
F1062       F  0.95960896  0.41523445  0.27778698    -0.15700
F1063       F  0.92110857  0.42142278  0.35367823    -0.19200
F1064       F  0.79334825  0.55500203  0.26105396    -0.22600
F1065       F  0.84944130  0.60352773  0.23094652    -0.24100
F1066       F  0.80833020  0.60808646  0.30630942    -0.18100
F1067       F  0.77074038  0.44849347  0.18254913    -0.20500
F1068       F  0.81075825  0.43626474  0.10773838    -0.21700
F1069       F  0.77303970  0.50179159  0.12890968    -0.18900
F1070       F  0.74205012  0.62244453  0.15737528    -0.19000
F1071       F  0.74023838  0.56443090  0.20576698    -0.22800
F1072       F  0.69660593  0.62534060  0.23126512    -0.24400
C1073       C  0.85306014  0.52149970  0.68838580    -0.11200
C1074       C  0.87719488  0.48518644  0.69715808     0.11400
C1075       C  0.90356983  0.45824790  0.65984306    -0.03000
C1076       C  0.90549404  0.46928255  0.61433854    -0.05800
C1077       C  0.88132385  0.50556827  0.60498166    -0.16500
C1078       C  0.85488761  0.53270598  0.64271147     0.02400
C1079       C  0.87547213  0.47687677  0.74574537     0.12300
C1080       C  0.92916956  0.41764660  0.66811541     0.62900
H1081       H  0.92536422  0.44861939  0.58559242     0.12300
C1082       C  0.83001679  0.57423807  0.63530643     0.55100
H1083       H  0.83298111  0.54125702  0.71786630     0.08100
C1084       C  0.90207746  0.50160937  0.76582396    -0.05700
C1085       C  0.90163227  0.48939177  0.81066107    -0.06400
C1086       C  0.87548756  0.45357157  0.83546117    -0.16000
C1087       C  0.84747354  0.43016527  0.81618623    -0.01600
C1088       C  0.84783118  0.44245768  0.77134060    -0.09100
C1089       C  0.60776424  0.40024601  0.77300843     0.65100
H1090       H  0.92201440  0.50744320  0.82662778     0.10600
C1091       C  0.81682306  0.39312311  0.84315192     0.63500
H1092       H  0.82724346  0.42472170  0.75540538     0.08000
F1093       F  0.81214339  0.59902815  0.67607998    -0.19500
F1094       F  0.79624356  0.56079827  0.62022104    -0.15700
F1095       F  0.85791815  0.60284302  0.60255640    -0.19200
F1096       F  0.90068201  0.38488811  0.69390033    -0.22600
F1097       F  0.95638179  0.43126858  0.69216302    -0.24100
F1098       F  0.95468903  0.39772292  0.62666659    -0.18100
F1099       F  0.79182129  0.40958347  0.88649852    -0.20500
F1100       F  0.84053157  0.35584354  0.84888967    -0.21700
F1101       F  0.78895514  0.37867964  0.82012144    -0.18900
F1102       F  0.59228036  0.36710905  0.80702333    -0.19000
F1103       F  0.63241269  0.37878736  0.73220685    -0.22800
F1104       F  0.57234741  0.42100073  0.76601049    -0.24400
C1105       C  0.77951406  0.04141583  0.20035716    -0.11200
C1106       C  0.74928944  0.01644594  0.23571127     0.11400
C1107       C  0.06822362  0.98079940  0.16920686    -0.03000
C1108       C  0.06460312  0.98044816  0.12432723    -0.05800
C1109       C  0.05683196  0.02065105  0.10333049    -0.16500
C1110       C  0.78247188  0.03702076  0.15342158     0.02400
C1111       C  0.74801277  0.02471809  0.28411371     0.12300
C1112       C  0.07772311  0.93678439  0.19044854     0.62900
H1113       H  0.06863627  0.94885007  0.10482472     0.12300
C1114       C  0.81524791  0.06642234  0.11714655     0.55100
H1115       H  0.80083197  0.06470018  0.21016543     0.08100
C1116       C  0.77694413  0.00258902  0.30309112    -0.05700
C1117       C  0.77531086  0.01425509  0.34849480    -0.06400
C1118       C  0.74752512  0.04874404  0.37384222    -0.16000
C1119       C  0.03714881  0.01368522  0.32457324    -0.01600
C1120       C  0.03408455  0.01228209  0.27946116    -0.09100
C1121       C  0.81006221  0.96783777  0.27506673     0.65100
H1122       H  0.79667358  0.99745410  0.36415722     0.10600
C1123       C  0.99853447  0.99888105  0.36619143     0.63500
H1124       H  0.00453099  0.00021293  0.27440376     0.08000
F1125       F  0.84761400  0.03911439  0.08795795    -0.19500
F1126       F  0.83510811  0.09803998  0.13736343    -0.15700
F1127       F  0.79452210  0.09028666  0.09134263    -0.19200
F1128       F  0.04309033  0.92613024  0.23003237    -0.22600
F1129       F  0.70253990  0.93645107  0.29017109    -0.24100
F1130       F  0.08407009  0.90041399  0.15983629    -0.18100
F1131       F  0.98669066  0.03376123  0.39871749    -0.20500
F1132       F  0.00943158  0.96056447  0.38643450    -0.21700
F1133       F  0.96265183  0.98811956  0.35344183    -0.18900
F1134       F  0.83455541  0.95006694  0.30049818    -0.19000
F1135       F  0.83835978  0.98824906  0.23553747    -0.22800
F1136       F  0.78912094  0.93207097  0.26181794    -0.24400
C1137       C  0.77226651  0.01993738  0.79874563    -0.11200
C1138       C  0.74747155  0.98635126  0.78652128     0.11400
C1139       C  0.72478545  0.95352232  0.81999210    -0.03000
C1140       C  0.72604167  0.95684036  0.86565441    -0.05800
C1141       C  0.75109846  0.99019379  0.87807565    -0.16500
C1142       C  0.77481696  0.02243433  0.84401830     0.02400
C1143       C  0.74686457  0.98548508  0.73788709     0.12300
C1144       C  0.70022657  0.91459410  0.80712374     0.62900
H1145       H  0.70844484  0.93235602  0.89172226     0.12300
C1146       C  0.02574092  0.06606416  0.83911723     0.55100
H1147       H  0.79003560  0.04399539  0.77212923     0.08100
C1148       C  0.03407606  0.94718286  0.69065068    -0.05700
C1149       C  0.71577249  0.00617133  0.67827136    -0.06400
C1150       C  0.74327090  0.97497460  0.64710425    -0.16000
C1151       C  0.77538910  0.95126494  0.66010211    -0.01600
C1152       C  0.77641666  0.95677868  0.70566557    -0.09100
C1153       C  0.99455003  0.93363704  0.73199209     0.65100
H1154       H  0.00455665  0.92756607  0.63970133     0.10600
C1155       C  0.80880029  0.92077137  0.62597631     0.63500
H1156       H  0.79967404  0.93783785  0.71695140     0.08000
F1157       F  0.99120744  0.05356192  0.87811106    -0.19500
F1158       F  0.81707091  0.09093117  0.81902376    -0.15700
F1159       F  0.05444925  0.09262110  0.85283616    -0.19200
F1160       F  0.72901441  0.88718684  0.77388286    -0.22600
F1161       F  0.66979528  0.93179697  0.78916820    -0.24100
F1162       F  0.67865399  0.88764795  0.84525795    -0.18100
F1163       F  0.84193587  0.90848593  0.64267091    -0.20500
F1164       F  0.82746607  0.94333197  0.58401960    -0.21700
F1165       F  0.78887177  0.88136220  0.61849283    -0.18900
F1166       F  0.96458195  0.90919887  0.71810177    -0.19000
F1167       F  0.97416133  0.97236669  0.75514864    -0.22800
F1168       F  0.00705748  0.90658496  0.76257461    -0.24400
C1169       C  0.76837898  0.78376729  0.04521164    -0.11200
C1170       C  0.79796497  0.76559450  0.00418231     0.11400
C1171       C  0.81511131  0.79351011  0.96433444    -0.03000
C1172       C  0.80404662  0.84008057  0.96782308    -0.05800
C1173       C  0.77535167  0.85877303  0.00925606    -0.16500
C1174       C  0.75643037  0.83012627  0.04849766     0.02400
C1175       C  0.81232989  0.71780084  0.00513077     0.11100
C1176       C  0.84466908  0.77388872  0.91846984     0.62900
H1177       H  0.81753170  0.86232393  0.93802664     0.12300
C1178       C  0.72515396  0.84851859  0.09414946     0.55100
H1179       H  0.75546620  0.76136030  0.07497430     0.08100
C1180       C  0.84969891  0.70633174  0.01691590    -0.05700
C1181       C  0.86041485  0.66015653  0.01821030    -0.06400
C1182       C  0.83482720  0.62535240  0.00917377    -0.16000
C1183       C  0.79755851  0.63659325  0.99743826    -0.01600
C1184       C  0.78687351  0.68300488  0.99556033    -0.09100
C1185       C  0.87939507  0.74065772  0.02887503     0.65100
H1186       H  0.88874409  0.65105585  0.02752055     0.10600
C1187       C  0.76847541  0.59980958  0.98865519     0.63500
H1188       H  0.75831557  0.69261711  0.98700963     0.08000
F1189       F  0.71432174  0.81574953  0.12896523    -0.19500
F1190       F  0.68706167  0.86271874  0.08780598    -0.15700
F1191       F  0.74404054  0.88488057  0.10927714    -0.19200
F1192       F  0.82285938  0.73973794  0.90385524    -0.22600
F1193       F  0.88182763  0.75585113  0.92406779    -0.24100
F1194       F  0.85730819  0.80669742  0.88378034    -0.18100
F1195       F  0.73192262  0.61832611  0.98240304    -0.20500
F1196       F  0.75503487  0.57024525  0.02623475    -0.21700
F1197       F  0.79084403  0.57560049  0.94880150    -0.18900
F1198       F  0.92057096  0.73782861  0.99580906    -0.19000
F1199       F  0.88229111  0.73008041  0.07209916    -0.22800
F1200       F  0.86529792  0.78527569  0.03052133    -0.24400
C1201       C  0.94269375  0.18384533  0.98269646    -0.11200
C1202       C  0.97026281  0.21718997  0.95531678     0.11400
C1203       C  0.01529149  0.20818709  0.93481618    -0.03000
C1204       C  0.03105201  0.16518881  0.94194127    -0.05800
C1205       C  0.00335856  0.13064720  0.96807558    -0.16500
C1206       C  0.95793845  0.14008100  0.98850252     0.02400
C1207       C  0.95079483  0.26152776  0.94937936     0.12300
C1208       C  0.79019674  0.23975232  0.00995448     0.62900
H1209       H  0.78800797  0.14686622  0.01779405     0.12300
C1210       C  0.92504223  0.10485556  0.01584573     0.55100
H1211       H  0.90859813  0.19238432  0.99876830     0.08100
C1212       C  0.92617955  0.26675224  0.91918649    -0.05700
C1213       C  0.90919927  0.31004804  0.91517702    -0.06400
C1214       C  0.91544266  0.34792975  0.94073461    -0.16000
C1215       C  0.93949528  0.34209970  0.97194357    -0.01600
C1216       C  0.95634407  0.29864434  0.97576857    -0.09100
C1217       C  0.91781629  0.22680815  0.89136114     0.65100
H1218       H  0.89030688  0.31443223  0.89221093     0.10600
C1219       C  0.94839411  0.38093032  0.00082880     0.63500
H1220       H  0.97415918  0.29302659  0.99965300     0.08000
F1221       F  0.92283385  0.06936710  0.98668983    -0.19500
F1222       F  0.88358127  0.12312215  0.03441469    -0.15700
F1223       F  0.93691466  0.08833730  0.05246967    -0.19200
F1224       F  0.77017913  0.27031662  0.04529329    -0.22600
F1225       F  0.81004686  0.26368625  0.96922292    -0.24100
F1226       F  0.82226132  0.21707213  0.02189389    -0.18100
F1227       F  0.90993128  0.39430086  0.03452761    -0.20500
F1228       F  0.96688031  0.41749724  0.97229720    -0.21700
F1229       F  0.97698355  0.36815158  0.02362723    -0.18900
F1230       F  0.89582740  0.24016898  0.86160526    -0.19000
F1231       F  0.89269686  0.19428287  0.92133162    -0.22800
F1232       F  0.95693094  0.20738118  0.86469281    -0.24400
loop_ 
_geom_bond_atom_site_label_1 
_geom_bond_atom_site_label_2 
_geom_bond_distance 
_geom_bond_site_symmetry_2 
_ccdc_geom_bond_type 
O1           Ni9   1.917   1_566  S
O1          C319   1.281   1_565  A
O2           Ni9   1.915       .  S
O2           C12   1.280       .  A
O3           Ni9   1.914       .  S
O3           C13   1.279       .  A
O4           Ni9   1.910   1_565  S
O4          C322   1.278       .  A
O5          Ni10   1.914   1_565  S
O5           C14   1.280       .  A
O6          Ni10   1.912       .  S
O6          C937   1.282       .  A
O7          Ni10   1.919   1_554  S
O7          C936   1.281       .  A
O8          Ni10   1.912       .  S
O8           C11   1.279   1_545  A
Ni9        Ni318   2.386       .  S
Ni10       Ni933   2.389   1_545  S
C11         O925   1.281       .  A
C11         C217   1.467       .  S
C12         O315   1.281       .  A
C12         C185   1.471       .  S
C13         O314   1.282       .  A
C13         C281   1.488       .  S
C14         O928   1.281       .  A
C14         C249   1.471       .  S
C15         C290   1.495       .  S
C15          N16   1.358       .  A
C15          N20   1.355       .  A
N16          C17   1.358       .  A
C17         C162   1.492       .  S
C17          N18   1.363       .  A
N18          C19   1.363       .  A
C19          C23   1.475       .  S
C19          N20   1.358       .  A
C21         C258   1.474   1_554  S
C21          N22   1.361   1_554  A
C21          N26   1.358       .  A
N22          C23   1.360       .  A
C23          N24   1.361   1_556  A
N24          C25   1.358       .  A
C25         C130   1.478       .  S
C25          N26   1.355       .  A
O27         Ni35   1.916       .  S
O27          C37   1.280       .  A
O28         Ni35   1.919       .  S
O28          C38   1.280       .  A
O29        Ni959   1.912       .  S
O29         C963   1.280       .  A
O30         Ni35   1.919       .  S
O30          C40   1.280       .  A
O31         Ni36   1.922       .  S
O31          C40   1.281       .  A
O32         Ni36   1.919       .  S
O32          C39   1.281       .  A
O33         Ni36   1.922       .  S
O33          C38   1.283       .  A
O34         Ni36   1.926       .  S
O34          C37   1.284       .  A
Ni35        O337   1.919       .  S
Ni35        Ni36   2.384       .  S
C37         C153   1.506       .  S
C38         C121   1.490       .  S
C39         O337   1.281       .  A
C39          C57   1.478       .  S
C40          C89   1.474       .  S
C41          C98   1.472       .  S
C41          N42   1.355       .  A
C41          N46   1.358       .  A
N42          C43   1.356       .  A
C43         C194   1.480       .  S
C43          N44   1.358       .  A
N44          C45   1.360       .  A
C45          C49   1.472   1_545  S
C45          N46   1.360       .  A
C47          C66   1.484       .  S
C47          N48   1.359       .  A
C47          N52   1.356       .  A
N48          C49   1.359       .  A
C49          N50   1.359       .  A
N50          C51   1.359       .  A
C51         C226   1.481       .  S
C51          N52   1.358       .  A
C53          C58   1.409       .  A
C53         C362   1.404       .  A
C53          H63   1.083       .  S
C54          C59   1.482       .  S
C54          C55   1.415       .  A
C54         C977   1.403       .  A
C55          C56   1.403       .  A
C55          C60   1.522   1_655  S
C56         C981   1.405       .  A
C56          H61   1.083       .  S
C57          C58   1.417       .  A
C57         C364   1.402       .  A
C58          C62   1.519       .  S
C59          C64   1.414   1_655  A
C59          C68   1.399       .  A
C60          F76   1.382       .  S
C60          F77   1.382       .  S
C60          F78   1.385       .  S
C62          F73   1.385       .  S
C62          F74   1.382       .  S
C62          F75   1.383       .  S
C64          C65   1.407       .  A
C64          C69   1.519       .  S
C65          C66   1.407       .  A
C65          H70   1.083       .  S
C66          C67   1.422   1_455  A
C67          C68   1.404       .  A
C67         C995   1.520       .  S
C68         H996   1.084       .  S
C69          F82   1.385       .  S
C69          F83   1.382       .  S
C69          F84   1.382       .  S
C71         C375   1.520       .  S
C71          F79   1.385       .  S
C71         F388   1.384       .  S
C71         F389   1.382       .  S
H72         C376   1.083       .  S
F80         C995   1.383       .  S
F81         C995   1.382       .  S
C85          C86   1.404       .  A
C85          C90   1.409       .  A
C85          H95   1.083       .  S
C86          C91   1.486       .  S
C86          C87   1.418       .  A
C87          C88   1.406       .  A
C87          C92   1.520       .  S
C88          C89   1.400       .  A
C88          H93   1.082       .  S
C89          C90   1.414       .  A
C90          C94   1.516       .  S
C91          C96   1.418       .  A
C91         C100   1.403       .  A
C92         F108   1.382       .  S
C92         F109   1.383       .  S
C92         F110   1.385       .  S
C94         F105   1.382       .  S
C94         F106   1.385       .  S
C94         F107   1.383       .  S
C96          C97   1.407       .  A
C96         C101   1.519       .  S
C97          C98   1.400       .  A
C97         H102   1.082       .  S
C98          C99   1.415       .  A
C99         C100   1.407       .  A
C99        C1027   1.519       .  S
C100        H104   1.083       .  S
C101        F114   1.385       .  S
C101        F115   1.382       .  S
C101        F116   1.383       .  S
C103        C407   1.517       .  S
C103        F111   1.383       .  S
C103        F112   1.384       .  S
C103        F113   1.384       .  S
C117        C118   1.401       .  A
C117        C122   1.409       .  A
C117        H127   1.083       .  S
C118        C123   1.487       .  S
C118        C119   1.416       .  A
C119        C120   1.408       .  A
C119        C124   1.520       .  S
C120        C121   1.407       .  A
C120        H125   1.083       .  S
C121        C122   1.422       .  A
C122        C126   1.520       .  S
C123        C128   1.418       .  A
C123        C132   1.401       .  A
C124        F140   1.382       .  S
C124        F141   1.381       .  S
C124        F142   1.385       .  S
C126        F138   1.384       .  S
C126        F139   1.382       .  S
C126        F445   1.382       .  S
C128        C129   1.410       .  A
C128        C441   1.519       .  S
C129        C130   1.403       .  A
C129        H442   1.084       .  S
C130        C131   1.416       .  A
C131        C132   1.405       .  A
C131        C135   1.517       .  S
C132        H136   1.083       .  S
C133       C1052   1.520       .  S
C133        F146   1.385       .  S
C133        F147   1.382       .  S
C133        F148   1.382       .  S
H134       C1053   1.084       .  S
C135        F143   1.385       .  S
C135        F144   1.378       .  S
C135        F145   1.382       .  S
F137       C1050   1.383       .  S
C149        C150   1.395       .  A
C149        C154   1.406       .  A
C149        H159   1.083       .  S
C150        C155   1.485       .  S
C150        C151   1.412       .  A
C151        C152   1.410       .  A
C151        C156   1.519       .  S
C152        C153   1.412       .  A
C152        H157   1.082       .  S
C153        C154   1.430       .  A
C154        C158   1.513       .  S
C155        C160   1.413       .  A
C155        C164   1.402       .  A
C156        F172   1.383       .  S
C156        F173   1.381       .  S
C156        F174   1.384       .  S
C158        F169   1.383       .  S
C158        F170   1.385       .  S
C158        F171   1.382       .  S
C160        C161   1.407       .  A
C160        C473   1.522       .  S
C161        C162   1.410       .  A
C161        H166   1.083       .  S
C162        C163   1.422       .  A
C163        C164   1.410       .  A
C163        C167   1.519       .  S
C164        H168   1.084       .  S
C165       C1084   1.520       .  S
C165        F178   1.384       .  S
C165        F179   1.382       .  S
C165        F180   1.383       .  S
C167        F175   1.384       .  S
C167        F176   1.382       .  S
C167        F177   1.385       .  S
C181        C182   1.404       .  A
C181        C186   1.408       .  A
C181        H191   1.083       .  S
C182        C187   1.486       .  S
C182       C1107   1.417   1_545  A
C183        C184   1.408       .  A
C183        C490   1.416   1_565  A
C183        C188   1.520       .  S
C184        C185   1.403   1_565  A
C184        H189   1.083       .  S
C185        C494   1.411       .  A
C186       C1109   1.414       .  A
C186        C190   1.517       .  S
C187        C192   1.416       .  A
C187       C1120   1.402       .  A
C188        F204   1.382       .  S
C188        F206   1.385       .  S
C188        F513   1.382       .  S
C190        F201   1.382       .  S
C190        F202   1.384       .  S
C190        F203   1.383       .  S
C192        C193   1.406       .  A
C192        C197   1.519       .  S
C193        C194   1.403       .  A
C193        H198   1.084       .  S
C194       C1119   1.418       .  A
C195        C196   1.408       .  A
C195        C502   1.416       .  A
C195        C199   1.519   1_545  S
C196        C495   1.405       .  A
C196        H200   1.084   1_545  S
C197        F210   1.384       .  S
C197        F211   1.382       .  S
C197        F212   1.383       .  S
C199        F207   1.383   1_565  S
C199        F208   1.382       .  S
C199        F209   1.385       .  S
F205       C1112   1.383       .  S
C213        C214   1.403   1_545  A
C213        C218   1.405       .  A
C213        H223   1.083       .  S
C214        C219   1.483       .  S
C214        C215   1.417       .  A
C215        C216   1.406       .  A
C215        C220   1.518       .  S
C216        C217   1.400       .  A
C216        H221   1.084       .  S
C217        C218   1.412   1_565  A
C218       C1146   1.517       .  S
C219        C228   1.402       .  A
C219       C1148   1.415       .  A
C220        F236   1.381       .  S
C220        F237   1.383       .  S
C220        F238   1.385       .  S
C222        C526   1.520       .  S
C222        F233   1.383       .  S
C222        F235   1.382       .  S
C222        F542   1.384       .  S
C224        C527   1.417       .  A
C224        C533   1.409       .  A
C224        C229   1.519   1_565  S
C225        C226   1.404       .  A
C225       C1148   1.404       .  A
C225       H1154   1.083       .  S
C226        C227   1.419       .  A
C227        C228   1.408       .  A
C227        C231   1.518       .  S
C228        H232   1.084       .  S
C229        F242   1.385       .  S
C229        F243   1.382       .  S
C229        F244   1.381       .  S
H230        C533   1.085   1_545  S
C231        F239   1.384       .  S
C231        F240   1.382   1_565  S
C231        F241   1.384       .  S
F234       C1146   1.384       .  S
C245        C246   1.397       .  A
C245        C250   1.401       .  A
C245        H255   1.086   1_556  S
C246        C251   1.477       .  S
C246        C247   1.414       .  A
C247        C248   1.407       .  A
C247        C252   1.520       .  S
C248        C249   1.406       .  A
C248        H253   1.084       .  S
C249        C250   1.420       .  A
C250        C254   1.517   1_556  S
C251        C256   1.414       .  A
C251        C260   1.401   1_556  A
C252        F268   1.382       .  S
C252        F269   1.382       .  S
C252        F270   1.385       .  S
C254        F265   1.380       .  S
C254        F266   1.382       .  S
C254        F267   1.376       .  S
C256        C257   1.407       .  A
C256        C261   1.520       .  S
C257        C258   1.403       .  A
C257        H262   1.077       .  S
C258        C259   1.417   1_556  A
C259        C260   1.403       .  A
C259        C263   1.519       .  S
C260        H264   1.083       .  S
C261        F274   1.385       .  S
C261        F275   1.383       .  S
C261        F276   1.381       .  S
C263        F271   1.383       .  S
C263        F272   1.383       .  S
C263        F273   1.385       .  S
C277        C278   1.399       .  A
C277        C282   1.406       .  A
C277        H287   1.083   1_554  S
C278        C283   1.481   1_554  S
C278        C279   1.413       .  A
C279        C280   1.407       .  A
C279        C592   1.521       .  S
C280        C281   1.408       .  A
C280        H593   1.082       .  S
C281        C282   1.425       .  A
C282        C286   1.522       .  S
C283        C288   1.412       .  A
C283        C292   1.398   1_556  A
C284       C1203   1.521       .  S
C284        F300   1.382       .  S
C284        F301   1.383       .  S
C284        F302   1.385       .  S
H285       C1204   1.082       .  S
C286        F297   1.383   1_554  S
C286        F298   1.385   1_554  S
C286        F299   1.383       .  S
C288        C289   1.404       .  A
C288        C293   1.520       .  S
C289        C290   1.409       .  A
C289        H294   1.082       .  S
C290        C291   1.427   1_556  A
C291        C292   1.407       .  A
C291        C295   1.518       .  S
C292        H296   1.083       .  S
C293        F306   1.385       .  S
C293        F307   1.383       .  S
C293        F308   1.382       .  S
C295        F303   1.383       .  S
C295        F304   1.383       .  S
C295        F305   1.385       .  S
O309       Ni317   1.917       .  S
O309        C627   1.279       .  A
O310       Ni317   1.910   1_544  S
O310        C320   1.278       .  A
O311       Ni317   1.912   1_545  S
O311        C321   1.279       .  A
O312       Ni317   1.918       .  S
O312        C630   1.282       .  A
O313       Ni318   1.914   1_565  S
O313        C322   1.282       .  A
O314       Ni318   1.917       .  S
O315       Ni318   1.921       .  S
O316       Ni318   1.918   1_556  S
O316        C319   1.280       .  A
Ni317      Ni626   2.385   1_565  S
C319        C525   1.482   1_545  S
C320        O623   1.282   1_554  A
C320        C493   1.473       .  S
C321        O622   1.282       .  A
C321        C589   1.493       .  S
C322        C557   1.482       .  S
C323        C598   1.491       .  S
C323        N324   1.353       .  A
C323        N328   1.359       .  A
N324        C325   1.348       .  A
C325        C470   1.462       .  S
C325        N326   1.350       .  A
N326        C327   1.356       .  A
C327        C331   1.459   1_556  S
C327        N328   1.361       .  A
C329        C566   1.479       .  S
C329        N330   1.353   1_554  A
C329        N334   1.353       .  A
N330        C331   1.357   1_556  A
C331        N332   1.357       .  A
N332        C333   1.356       .  A
C333        C438   1.461       .  S
C333        N334   1.351       .  A
O335       Ni343   1.911       .  S
O335        C345   1.282       .  A
O336       Ni343   1.915       .  S
O336        C346   1.280       .  A
O338       Ni343   1.922       .  S
O338        C348   1.280       .  A
O339       Ni344   1.922       .  S
O339        C348   1.279       .  A
O340       Ni344   1.925       .  S
O340        C347   1.283       .  A
O341       Ni344   1.882       .  S
O341        C346   1.276       .  A
O342       Ni344   1.895       .  S
O342        C345   1.273       .  A
Ni343       O645   1.916       .  S
Ni343      Ni344   2.385       .  S
C345        C461   1.475       .  S
C346        C429   1.473       .  S
C347        O645   1.280       .  A
C347        C365   1.476       .  S
C348        C397   1.484       .  S
C349        C406   1.485       .  S
C349        N350   1.354       .  A
C349        N354   1.364       .  A
N350        C351   1.353       .  A
C351        C502   1.473       .  S
C351        N352   1.355       .  A
N352        C353   1.360       .  A
C353        C357   1.475   1_545  S
C353        N354   1.366       .  A
C355        C374   1.484       .  S
C355        N356   1.359       .  A
C355        N360   1.355       .  A
N356        C357   1.362       .  A
C357        N358   1.360       .  A
N358        C359   1.360       .  A
C359        C534   1.477       .  S
C359        N360   1.356       .  A
C361        C670   1.403       .  A
C361        C366   1.408       .  A
C361        H371   1.083       .  S
C362        C367   1.487       .  S
C362        C363   1.417       .  A
C363        C364   1.407       .  A
C363        C368   1.520       .  S
C364        H369   1.084       .  S
C365        C672   1.400       .  A
C365        C366   1.416       .  A
C366        C370   1.516       .  S
C367        C372   1.416       .  A
C367        C376   1.402       .  A
C368        F384   1.382       .  S
C368        F385   1.381       .  S
C368        F386   1.384       .  S
C370        F381   1.385       .  S
C370        F382   1.382       .  S
C370        F383   1.383       .  S
C372        C373   1.410       .  A
C372        C377   1.519       .  S
C373        C374   1.406       .  A
C373        H378   1.083       .  S
C374        C375   1.420       .  A
C375        C376   1.407       .  A
C377        F390   1.385       .  S
C377        F391   1.382       .  S
C377        F392   1.381       .  S
C379        C683   1.517       .  S
C379        F387   1.385       .  S
C379        F696   1.383       .  S
C379        F697   1.379       .  S
H380        C684   1.084       .  S
C393        C394   1.404       .  A
C393        C398   1.411       .  A
C393        H403   1.083       .  S
C394        C399   1.490       .  S
C394        C395   1.417       .  A
C395        C396   1.408       .  A
C395        C400   1.520       .  S
C396        C397   1.405       .  A
C396        H401   1.083       .  S
C397        C398   1.419       .  A
C398        C402   1.520       .  S
C399        C404   1.416       .  A
C399        C408   1.405       .  A
C400        F416   1.382       .  S
C400        F417   1.382       .  S
C400        F418   1.385       .  S
C402        F413   1.381       .  S
C402        F414   1.385       .  S
C402        F415   1.383       .  S
C404        C405   1.406       .  A
C404        C409   1.520       .  S
C405        C406   1.405       .  A
C405        H410   1.083       .  S
C406        C407   1.417       .  A
C407        C408   1.412       .  A
C408        H412   1.083       .  S
C409        F422   1.385       .  S
C409        F423   1.379       .  S
C409        F424   1.382       .  S
C411        C715   1.519       .  S
C411        F419   1.381       .  S
C411        F420   1.383       .  S
C411        F421   1.385       .  S
C425        C426   1.399       .  A
C425        C430   1.402       .  A
C425        H435   1.083       .  S
C426        C431   1.462       .  S
C426        C427   1.409       .  A
C427        C428   1.394       .  A
C427        C432   1.523       .  S
C428        C429   1.409       .  A
C428        H433   1.082       .  S
C429        C430   1.418       .  A
C430        C434   1.519       .  S
C431        C436   1.411       .  A
C431        C440   1.399       .  A
C432        F448   1.380       .  S
C432        F449   1.381       .  S
C432        F450   1.385       .  S
C434        F753   1.383       .  S
C434        F446   1.385       .  S
C434        F447   1.384       .  S
C436        C437   1.400       .  A
C436        C749   1.522       .  S
C437        C438   1.403       .  A
C437        H750   1.083       .  S
C438        C439   1.413       .  A
C439        C440   1.400       .  A
C439        C443   1.517       .  S
C440        H444   1.083       .  S
C441        F454   1.385       .  S
C441        F455   1.380       .  S
C441        F456   1.382       .  S
C443        F451   1.383       .  S
C443        F452   1.379       .  S
C443        F453   1.383       .  S
C457        C458   1.395       .  A
C457        C462   1.400       .  A
C457        H467   1.084       .  S
C458        C463   1.464       .  S
C458        C459   1.413       .  A
C459        C460   1.398       .  A
C459        C464   1.522       .  S
C460        C461   1.404       .  A
C460        H465   1.083       .  S
C461        C462   1.426       .  A
C462        C466   1.521       .  S
C463        C468   1.411       .  A
C463        C472   1.397       .  A
C464        F480   1.382       .  S
C464        F481   1.382       .  S
C464        F482   1.385       .  S
C466        F477   1.385       .  S
C466        F478   1.383       .  S
C466        F479   1.383       .  S
C468        C469   1.403       .  A
C468        C781   1.519       .  S
C469        C470   1.404       .  A
C469        H474   1.082       .  S
C470        C471   1.416       .  A
C471        C472   1.397       .  A
C471        C475   1.520       .  S
C472        H476   1.082       .  S
C473        F486   1.385       .  S
C473        F487   1.383       .  S
C473        F488   1.381       .  S
C475        F483   1.384       .  S
C475        F484   1.382       .  S
C475        F485   1.384       .  S
C489        C490   1.403       .  A
C489        C494   1.405       .  A
C489        H499   1.083       .  S
C490        C495   1.482       .  S
C491        C798   1.414   1_565  A
C491        C492   1.406       .  A
C491        C496   1.518       .  S
C492        C493   1.401   1_565  A
C492        H497   1.079       .  S
C493        C802   1.417       .  A
C494        C498   1.517       .  S
C495        C500   1.416       .  A
C496        F512   1.382       .  S
C496        F821   1.381       .  S
C496        F514   1.383       .  S
C498        F509   1.383       .  S
C498        F510   1.384       .  S
C498        F511   1.382       .  S
C500        C501   1.402       .  A
C500        C505   1.521       .  S
C501        C502   1.402       .  A
C501        H506   1.084       .  S
C503        C810   1.420       .  A
C503        C504   1.406       .  A
C503        C507   1.520   1_545  S
C504        C803   1.401       .  A
C504        H508   1.083   1_545  S
C505        F518   1.385       .  S
C505        F519   1.381       .  S
C505        F520   1.381       .  S
C507        F515   1.384   1_565  S
C507        F516   1.382       .  S
C507        F517   1.385       .  S
C521        C522   1.402   1_545  A
C521        C526   1.407       .  A
C521        H531   1.083       .  S
C522        C527   1.483       .  S
C522        C523   1.415       .  A
C523        C524   1.406       .  A
C523        C528   1.521       .  S
C524        C525   1.406       .  A
C524        H529   1.082       .  S
C525        C526   1.419   1_565  A
C527        C536   1.400       .  A
C528        F544   1.382       .  S
C528        F545   1.381       .  S
C528        F546   1.383       .  S
C530        C834   1.512       .  S
C530        F541   1.382       .  S
C530        F850   1.385       .  S
C530        F543   1.383       .  S
C532        C835   1.410       .  A
C532        C841   1.398       .  A
C532        C537   1.522       .  S
C533        C534   1.404       .  A
C534        C535   1.418       .  A
C535        C536   1.404       .  A
C535        C539   1.519       .  S
C536        H540   1.085       .  S
C537        F550   1.385       .  S
C537        F551   1.382       .  S
C537        F552   1.382       .  S
H538        C841   1.077       .  S
C539        F547   1.384       .  S
C539        F548   1.383       .  S
C539        F549   1.382       .  S
C553        C554   1.398       .  A
C553        C558   1.405       .  A
C553        H563   1.083       .  S
C554        C559   1.472       .  S
C554        C555   1.410   1_554  A
C555        C556   1.403       .  A
C555        C560   1.518       .  S
C556        C557   1.408   1_556  A
C556        H561   1.082       .  S
C557        C558   1.423       .  A
C558        C562   1.520       .  S
C559        C564   1.415       .  A
C559        C568   1.403   1_554  A
C560        F576   1.383       .  S
C560        F577   1.382       .  S
C560        F578   1.384       .  S
C562        F573   1.385       .  S
C562        F574   1.380       .  S
C562        F575   1.383       .  S
C564        C565   1.395       .  A
C564        C569   1.522       .  S
C565        C566   1.404       .  A
C565        H570   1.085       .  S
C566        C567   1.421   1_554  A
C567        C568   1.408       .  A
C567        C571   1.520       .  S
C568        H572   1.084       .  S
C569        F582   1.384       .  S
C569        F583   1.383       .  S
C569        F584   1.381       .  S
C571        F579   1.380       .  S
C571        F580   1.384       .  S
C571        F581   1.383       .  S
C585        C586   1.395       .  A
C585        C590   1.403       .  A
C585        H595   1.083       .  S
C586        C591   1.470       .  S
C586        C587   1.408       .  A
C587        C588   1.404       .  A
C587        C900   1.522       .  S
C588        C589   1.414       .  A
C588        H901   1.081       .  S
C589        C590   1.429       .  A
C590        C594   1.522       .  S
C591        C596   1.408       .  A
C591        C600   1.398       .  A
C592        F608   1.382       .  S
C592        F609   1.383   1_554  S
C592        F610   1.384       .  S
C594        F605   1.377       .  S
C594        F606   1.384       .  S
C594        F607   1.382       .  S
C596        C597   1.398       .  A
C596        C601   1.523       .  S
C597        C598   1.413       .  A
C597        H602   1.081       .  S
C598        C599   1.424       .  A
C599        C600   1.406       .  A
C599        C603   1.517   1_556  S
C600        H604   1.083   1_556  S
C601        F614   1.385       .  S
C601        F615   1.383       .  S
C601        F616   1.381       .  S
C603        F611   1.384       .  S
C603        F612   1.383       .  S
C603        F613   1.385       .  S
O617       Ni625   1.928   1_556  S
O617        C935   1.284       .  A
O618       Ni625   1.921       .  S
O618        C628   1.283   1_565  A
O619       Ni625   1.909   1_545  S
O619        C629   1.278       .  A
O620       Ni625   1.913       .  S
O620        C938   1.278       .  A
O621       Ni626   1.914   1_565  S
O621        C630   1.279       .  A
O622       Ni626   1.912       .  S
O623       Ni626   1.925       .  S
O624       Ni626   1.918       .  S
O624        C627   1.280   1_545  A
Ni625      Ni934   2.383   1_564  S
C627        C833   1.479       .  S
C628        O931   1.278       .  A
C628        C801   1.486       .  S
C629        O930   1.283   1_554  A
C629        C897   1.490       .  S
C630        C865   1.478       .  S
C631        C906   1.499       .  S
C631        N632   1.364       .  A
C631        N636   1.361       .  A
N632        C633   1.359       .  A
C633        C778   1.485       .  S
C633        N634   1.355       .  A
N634        C635   1.357       .  A
C635        C639   1.472       .  S
C635        N636   1.358       .  A
C637        C874   1.479   1_554  S
C637        N638   1.355   1_554  A
C637        N642   1.359       .  A
N638        C639   1.357       .  A
C639        N640   1.362   1_556  A
N640        C641   1.362       .  A
C641        C746   1.481       .  S
C641        N642   1.358       .  A
O643       Ni651   1.910       .  S
O643        C653   1.277       .  A
O644       Ni651   1.906       .  S
O644        C654   1.277       .  A
O646       Ni651   1.926       .  S
O646        C656   1.284       .  A
O647       Ni652   1.901       .  S
O647        C656   1.276       .  A
O648       Ni652   1.898       .  S
O648        C655   1.277       .  A
O649       Ni652   1.937       .  S
O649        C654   1.287       .  A
O650       Ni652   1.940       .  S
O650        C653   1.288       .  A
Ni651       O953   1.925       .  S
Ni651      Ni652   2.383       .  S
C653        C769   1.503       .  S
C654        C737   1.495       .  S
C655        O953   1.282       .  A
C655        C673   1.476       .  S
C656        C705   1.475       .  S
C657        C714   1.482       .  S
C657        N658   1.357       .  A
C657        N662   1.358       .  A
N658        C659   1.358       .  A
C659        C810   1.480       .  S
C659        N660   1.357       .  A
N660        C661   1.357       .  A
C661        C665   1.468   1_545  S
C661        N662   1.359       .  A
C663        C682   1.476       .  S
C663        N664   1.359       .  A
C663        N668   1.354       .  A
N664        C665   1.362       .  A
C665        N666   1.359   1_565  A
N666        C667   1.356   1_545  A
C667        C842   1.485       .  S
C667        N668   1.358       .  A
C669        C978   1.403       .  A
C669        C674   1.408       .  A
C669        H679   1.083       .  S
C670        C675   1.481       .  S
C670        C671   1.421       .  A
C671        C672   1.404       .  A
C671        C676   1.521       .  S
C672        H677   1.085       .  S
C673        C980   1.405       .  A
C673        C674   1.418       .  A
C674        C678   1.518       .  S
C675        C680   1.416       .  A
C675        C684   1.399       .  A
C676        F692   1.383       .  S
C676        F693   1.381       .  S
C676        F694   1.383       .  S
C678        F689   1.385       .  S
C678        F690   1.384       .  S
C678        F691   1.383       .  S
C680        C681   1.410       .  A
C680        C685   1.516       .  S
C681        C682   1.403       .  A
C681        H686   1.083       .  S
C682        C683   1.418       .  A
C683        C684   1.403       .  A
C685        F698   1.385       .  S
C685        F699   1.383       .  S
C685        F700   1.383       .  S
C687        C991   1.518       .  S
C687        F695   1.385       .  S
C687       F1004   1.383       .  S
C687       F1005   1.382       .  S
H688        C992   1.083       .  S
C701        C702   1.402       .  A
C701        C706   1.406       .  A
C701        H711   1.084       .  S
C702        C707   1.479       .  S
C702        C703   1.414       .  A
C703        C704   1.405       .  A
C703        C708   1.520       .  S
C704        C705   1.404       .  A
C704        H709   1.083       .  S
C705        C706   1.413       .  A
C706        C710   1.513       .  S
C707        C712   1.413       .  A
C707        C716   1.402       .  A
C708        F724   1.380       .  S
C708        F725   1.381       .  S
C708        F726   1.384       .  S
C710        F721   1.380       .  S
C710        F722   1.381       .  S
C710        F723   1.384       .  S
C712        C713   1.403       .  A
C712        C717   1.522       .  S
C713        C714   1.404       .  A
C713        H718   1.082       .  S
C714        C715   1.419       .  A
C715        C716   1.409       .  A
C716        H720   1.083       .  S
C717        F730   1.384       .  S
C717        F731   1.383       .  S
C717        F732   1.381       .  S
C719       C1023   1.517       .  S
C719        F727   1.383       .  S
C719        F728   1.383       .  S
C719        F729   1.383       .  S
C733        C734   1.398       .  A
C733        C738   1.407       .  A
C733        H743   1.083       .  S
C734        C739   1.490       .  S
C734        C735   1.417       .  A
C735        C736   1.411       .  A
C735        C740   1.518       .  S
C736        C737   1.408       .  A
C736        H741   1.083       .  S
C737        C738   1.427       .  A
C738        C742   1.522       .  S
C739        C744   1.419       .  A
C739        C748   1.403       .  A
C740        F756   1.382       .  S
C740        F757   1.382       .  S
C740        F758   1.385       .  S
C742       F1061   1.383       .  S
C742        F754   1.384       .  S
C742        F755   1.384       .  S
C744        C745   1.410       .  A
C744       C1057   1.519       .  S
C745        C746   1.403       .  A
C745       H1058   1.082       .  S
C746        C747   1.416       .  A
C747        C748   1.409       .  A
C747        C751   1.517       .  S
C748        H752   1.083       .  S
C749        F762   1.382       .  S
C749        F763   1.381       .  S
C749        F764   1.381       .  S
C751        F759   1.384       .  S
C751        F760   1.380       .  S
C751        F761   1.384       .  S
C765        C766   1.396       .  A
C765        C770   1.408       .  A
C765        H775   1.083       .  S
C766        C771   1.488       .  S
C766        C767   1.414       .  A
C767        C768   1.411       .  A
C767        C772   1.518       .  S
C768        C769   1.410       .  A
C768        H773   1.083       .  S
C769        C770   1.431       .  A
C770        C774   1.520       .  S
C771        C776   1.416       .  A
C771        C780   1.402       .  A
C772        F788   1.382       .  S
C772        F789   1.381       .  S
C772        F790   1.382       .  S
C774        F785   1.377       .  S
C774        F786   1.384       .  S
C774        F787   1.382       .  S
C776        C777   1.410       .  A
C776       C1089   1.520       .  S
C777        C778   1.406       .  A
C777        H782   1.083       .  S
C778        C779   1.420       .  A
C779        C780   1.407       .  A
C779        C783   1.520       .  S
C780        H784   1.083       .  S
C781        F794   1.384       .  S
C781        F795   1.382       .  S
C781        F796   1.382       .  S
C783        F791   1.384       .  S
C783        F792   1.382       .  S
C783        F793   1.385       .  S
C797        C798   1.400       .  A
C797        C802   1.404       .  A
C797        H807   1.083       .  S
C798        C803   1.478       .  S
C799       C1106   1.413   1_565  A
C799        C800   1.407       .  A
C799        C804   1.519       .  S
C800        C801   1.407   1_565  A
C800        H805   1.082       .  S
C801       C1110   1.424       .  A
C802        C806   1.517       .  S
C803        C808   1.413       .  A
C804        F820   1.383       .  S
C804       F1129   1.382       .  S
C804        F822   1.384       .  S
C806        F817   1.382       .  S
C806        F818   1.385       .  S
C806        F819   1.382       .  S
C808        C809   1.403       .  A
C808        C813   1.521       .  S
C809        C810   1.406       .  A
C809        H814   1.083       .  S
C811       C1118   1.414       .  A
C811        C812   1.405       .  A
C811        C815   1.517       .  S
C812       C1111   1.400       .  A
C812        H816   1.084       .  S
C813        F826   1.385       .  S
C813        F827   1.382       .  S
C813        F828   1.382       .  S
C815        F823   1.383       .  S
C815        F824   1.383       .  S
C815        F825   1.380       .  S
C829        C830   1.397   1_545  A
C829        C834   1.402       .  A
C829        H839   1.084       .  S
C830        C835   1.476       .  S
C830        C831   1.414       .  A
C831        C832   1.406       .  A
C831        C836   1.519       .  S
C832        C833   1.402       .  A
C832        H837   1.080       .  S
C833        C834   1.418   1_565  A
C835        C844   1.402   1_565  A
C836        F852   1.381       .  S
C836        F853   1.382       .  S
C836        F854   1.384       .  S
C838       C1142   1.520       .  S
C838        F849   1.383       .  S
C838       F1158   1.385       .  S
C838        F851   1.383       .  S
C840       C1143   1.416   1_545  A
C840       C1149   1.407       .  A
C840        C845   1.516       .  S
C841        C842   1.406       .  A
C842        C843   1.424   1_565  A
C843        C844   1.409       .  A
C843        C847   1.521       .  S
C844        H848   1.083       .  S
C845        F858   1.385       .  S
C845        F859   1.382       .  S
C845        F860   1.378       .  S
H846       C1149   1.083       .  S
C847        F855   1.385       .  S
C847        F856   1.381       .  S
C847        F857   1.383       .  S
C861        C862   1.395       .  A
C861        C866   1.400       .  A
C861        H871   1.087       .  S
C862        C867   1.479       .  S
C862        C863   1.413       .  A
C863        C864   1.407       .  A
C863        C868   1.518       .  S
C864        C865   1.407       .  A
C864        H869   1.084       .  S
C865        C866   1.426       .  A
C866        C870   1.518       .  S
C867        C872   1.416       .  A
C867        C876   1.400   1_556  A
C868        F884   1.382       .  S
C868        F885   1.382       .  S
C868        F886   1.384       .  S
C870        F881   1.383       .  S
C870        F882   1.383   1_556  S
C870        F883   1.373       .  S
C872        C873   1.407       .  A
C872        C877   1.521       .  S
C873        C874   1.406       .  A
C873        H878   1.083       .  S
C874        C875   1.416   1_556  A
C875        C876   1.403       .  A
C875        C879   1.516       .  S
C876        H880   1.084       .  S
C877        F890   1.385       .  S
C877        F891   1.382       .  S
C877        F892   1.382       .  S
C879        F887   1.382       .  S
C879        F888   1.384       .  S
C879        F889   1.385       .  S
C893        C894   1.399       .  A
C893        C898   1.406       .  A
C893        H903   1.083       .  S
C894        C899   1.483       .  S
C894        C895   1.413   1_556  A
C895        C896   1.408       .  A
C895       C1208   1.519       .  S
C896        C897   1.409       .  A
C896       H1209   1.083       .  S
C897        C898   1.426   1_554  A
C898        C902   1.522       .  S
C899        C904   1.413       .  A
C899        C908   1.399   1_556  A
C900        F916   1.383       .  S
C900        F917   1.382       .  S
C900        F918   1.384       .  S
C902        F913   1.384       .  S
C902        F914   1.384       .  S
C902        F915   1.383   1_556  S
C904        C905   1.405       .  A
C904        C909   1.522       .  S
C905        C906   1.410       .  A
C905        H910   1.080       .  S
C906        C907   1.428   1_556  A
C907        C908   1.409       .  A
C907        C911   1.519       .  S
C908        H912   1.083       .  S
C909        F922   1.384       .  S
C909        F923   1.382       .  S
C909        F924   1.382       .  S
C911        F919   1.383       .  S
C911        F920   1.383       .  S
C911        F921   1.385       .  S
O925       Ni933   1.918       .  S
O926       Ni933   1.922   1_554  S
O926        C936   1.281   1_565  A
O927       Ni933   1.918   1_545  S
O927        C937   1.280       .  A
O928       Ni933   1.915       .  S
O929       Ni934   1.922   1_565  S
O929        C938   1.282   1_556  A
O930       Ni934   1.922       .  S
O931       Ni934   1.909   1_554  S
O932       Ni934   1.908   1_565  S
O932        C935   1.277       .  A
C935       C1141   1.485       .  S
C936       C1109   1.475       .  S
C937       C1205   1.495       .  S
C938       C1173   1.479       .  S
C939       C1214   1.492       .  S
C939        N940   1.361       .  A
C939        N944   1.354       .  A
N940        C941   1.359       .  A
C941       C1086   1.472       .  S
C941        N942   1.357       .  A
N942        C943   1.356       .  A
C943        C947   1.464       .  S
C943        N944   1.355       .  A
C945       C1182   1.473       .  S
C945        N946   1.359   1_554  A
C945        N950   1.354       .  A
N946        C947   1.360       .  A
C947        N948   1.358   1_556  A
N948        C949   1.354       .  A
C949       C1054   1.464       .  S
C949        N950   1.353       .  A
O951       Ni959   1.912       .  S
O951        C961   1.282       .  A
O952       Ni959   1.913       .  S
O952        C962   1.279       .  A
O954       Ni959   1.914       .  S
O954        C964   1.279       .  A
O955       Ni960   1.922       .  S
O955        C964   1.281       .  A
O956       Ni960   1.923       .  S
O956        C963   1.281       .  A
O957       Ni960   1.911       .  S
O957        C962   1.282       .  A
O958       Ni960   1.917       .  S
O958        C961   1.279       .  A
Ni959      Ni960   2.385       .  S
C961       C1077   1.488       .  S
C962       C1045   1.487       .  S
C963        C981   1.482       .  S
C964       C1013   1.474       .  S
C965       C1022   1.471       .  S
C965        N966   1.355       .  A
C965        N970   1.360       .  A
N966        C967   1.354       .  A
C967       C1118   1.470       .  S
C967        N968   1.354       .  A
N968        C969   1.357       .  A
C969        C973   1.467   1_545  S
C969        N970   1.362       .  A
C971        C990   1.484       .  S
C971        N972   1.355       .  A
C971        N976   1.358       .  A
N972        C973   1.359       .  A
C973        N974   1.359   1_565  A
N974        C975   1.359   1_545  A
C975       C1150   1.476       .  S
C975        N976   1.358       .  A
C977        C982   1.410       .  A
C977        H987   1.083       .  S
C978        C983   1.479       .  S
C978        C979   1.413       .  A
C979        C980   1.401       .  A
C979        C984   1.521       .  S
C980        H985   1.083       .  S
C981        C982   1.420       .  A
C982        C986   1.519       .  S
C983        C988   1.413       .  A
C983        C992   1.402       .  A
C984       F1000   1.382       .  S
C984       F1001   1.382       .  S
C984       F1002   1.385       .  S
C986        F997   1.385       .  S
C986        F998   1.382       .  S
C986        F999   1.384       .  S
C988        C989   1.402       .  A
C988        C993   1.521       .  S
C989        C990   1.404       .  A
C989        H994   1.080       .  S
C990        C991   1.422       .  A
C991        C992   1.409       .  A
C993       F1006   1.384       .  S
C993       F1007   1.382       .  S
C993       F1008   1.382       .  S
C995       F1003   1.385       .  S
C1009      C1010   1.401       .  A
C1009      C1014   1.405       .  A
C1009      H1019   1.083       .  S
C1010      C1015   1.482       .  S
C1010      C1011   1.418       .  A
C1011      C1012   1.409       .  A
C1011      C1016   1.521       .  S
C1012      C1013   1.402       .  A
C1012      H1017   1.083       .  S
C1013      C1014   1.416       .  A
C1014      C1018   1.518       .  S
C1015      C1020   1.416       .  A
C1015      C1024   1.403       .  A
C1016      F1032   1.381       .  S
C1016      F1033   1.382       .  S
C1016      F1034   1.385       .  S
C1018      F1029   1.382       .  S
C1018      F1030   1.384       .  S
C1018      F1031   1.382       .  S
C1020      C1021   1.405       .  A
C1020      C1025   1.521       .  S
C1021      C1022   1.401       .  A
C1021      H1026   1.083       .  S
C1022      C1023   1.413       .  A
C1023      C1024   1.408       .  A
C1024      H1028   1.082       .  S
C1025      F1038   1.385       .  S
C1025      F1039   1.382       .  S
C1025      F1040   1.382       .  S
C1027      F1035   1.383       .  S
C1027      F1036   1.383       .  S
C1027      F1037   1.385       .  S
C1041      C1042   1.398       .  A
C1041      C1046   1.407       .  A
C1041      H1051   1.083       .  S
C1042      C1047   1.479       .  S
C1042      C1043   1.413       .  A
C1043      C1044   1.403       .  A
C1043      C1048   1.520       .  S
C1044      C1045   1.407       .  A
C1044      H1049   1.083       .  S
C1045      C1046   1.425       .  A
C1046      C1050   1.521       .  S
C1047      C1052   1.416       .  A
C1047      C1056   1.404       .  A
C1048      F1064   1.381       .  S
C1048      F1065   1.383       .  S
C1048      F1066   1.384       .  S
C1050      F1062   1.385       .  S
C1050      F1063   1.384       .  S
C1052      C1053   1.402       .  A
C1053      C1054   1.399       .  A
C1054      C1055   1.412       .  A
C1055      C1056   1.406       .  A
C1055      C1059   1.518       .  S
C1056      H1060   1.084       .  S
C1057      F1070   1.385       .  S
C1057      F1071   1.381       .  S
C1057      F1072   1.382       .  S
C1059      F1067   1.384       .  S
C1059      F1068   1.383       .  S
C1059      F1069   1.383       .  S
C1073      C1074   1.400       .  A
C1073      C1078   1.409       .  A
C1073      H1083   1.083       .  S
C1074      C1079   1.479       .  S
C1074      C1075   1.412       .  A
C1075      C1076   1.401       .  A
C1075      C1080   1.521       .  S
C1076      C1077   1.407       .  A
C1076      H1081   1.082       .  S
C1077      C1078   1.424       .  A
C1078      C1082   1.520       .  S
C1079      C1084   1.414       .  A
C1079      C1088   1.402       .  A
C1080      F1096   1.382       .  S
C1080      F1097   1.382       .  S
C1080      F1098   1.385       .  S
C1082      F1093   1.385       .  S
C1082      F1094   1.382       .  S
C1082      F1095   1.384       .  S
C1084      C1085   1.405       .  A
C1085      C1086   1.402       .  A
C1085      H1090   1.082       .  S
C1086      C1087   1.415       .  A
C1087      C1088   1.406       .  A
C1087      C1091   1.516       .  S
C1088      H1092   1.082       .  S
C1089      F1102   1.385       .  S
C1089      F1103   1.382       .  S
C1089      F1104   1.382       .  S
C1091      F1099   1.383       .  S
C1091      F1100   1.382       .  S
C1091      F1101   1.384       .  S
C1105      C1106   1.397       .  A
C1105      C1110   1.403       .  A
C1105      H1115   1.083       .  S
C1106      C1111   1.478       .  S
C1107      C1108   1.408       .  A
C1107      C1112   1.520       .  S
C1108      C1109   1.403   1_565  A
C1108      H1113   1.083       .  S
C1110      C1114   1.520       .  S
C1111      C1116   1.416       .  A
C1112      F1128   1.382       .  S
C1112      F1130   1.384       .  S
C1114      F1125   1.383       .  S
C1114      F1126   1.385       .  S
C1114      F1127   1.383       .  S
C1116      C1117   1.405       .  A
C1116      C1121   1.520   1_545  S
C1117      C1118   1.402       .  A
C1117      H1122   1.084   1_545  S
C1119      C1120   1.408       .  A
C1119      C1123   1.519   1_445  S
C1120      H1124   1.083       .  S
C1121      F1134   1.385       .  S
C1121      F1135   1.382       .  S
C1121      F1136   1.381       .  S
C1123      F1131   1.384   1_565  S
C1123      F1132   1.383   1_655  S
C1123      F1133   1.384       .  S
C1137      C1138   1.399   1_545  A
C1137      C1142   1.408       .  A
C1137      H1147   1.083       .  S
C1138      C1143   1.485       .  S
C1138      C1139   1.416       .  A
C1139      C1140   1.405       .  A
C1139      C1144   1.517       .  S
C1140      C1141   1.403       .  A
C1140      H1145   1.081       .  S
C1141      C1142   1.424   1_565  A
C1143      C1152   1.400       .  A
C1144      F1160   1.382       .  S
C1144      F1161   1.377       .  S
C1144      F1162   1.384       .  S
C1146      F1157   1.383   1_455  S
C1146      F1159   1.383       .  S
C1148      C1153   1.520   1_455  S
C1149      C1150   1.402   1_545  A
C1150      C1151   1.417       .  A
C1151      C1152   1.406       .  A
C1151      C1155   1.517       .  S
C1152      H1156   1.083       .  S
C1153      F1166   1.385       .  S
C1153      F1167   1.382       .  S
C1153      F1168   1.383   1_655  S
C1155      F1163   1.385       .  S
C1155      F1164   1.384       .  S
C1155      F1165   1.380       .  S
C1169      C1170   1.401       .  A
C1169      C1174   1.407       .  A
C1169      H1179   1.083       .  S
C1170      C1175   1.480       .  S
C1170      C1171   1.413   1_554  A
C1171      C1172   1.406       .  A
C1171      C1176   1.517       .  S
C1172      C1173   1.404   1_556  A
C1172      H1177   1.083       .  S
C1173      C1174   1.420       .  A
C1174      C1178   1.519       .  S
C1175      C1180   1.419       .  A
C1175      C1184   1.404   1_554  A
C1176      F1192   1.383       .  S
C1176      F1193   1.382       .  S
C1176      F1194   1.384       .  S
C1178      F1189   1.385       .  S
C1178      F1190   1.381       .  S
C1178      F1191   1.383       .  S
C1180      C1181   1.401       .  A
C1180      C1185   1.521       .  S
C1181      C1182   1.401       .  A
C1181      H1186   1.085       .  S
C1182      C1183   1.413   1_554  A
C1183      C1184   1.409       .  A
C1183      C1187   1.516       .  S
C1184      H1188   1.083       .  S
C1185      F1198   1.383   1_554  S
C1185      F1199   1.384       .  S
C1185      F1200   1.381       .  S
C1187      F1195   1.378       .  S
C1187      F1196   1.383   1_556  S
C1187      F1197   1.382       .  S
C1201      C1202   1.398       .  A
C1201      C1206   1.407       .  A
C1201      H1211   1.082       .  S
C1202      C1207   1.483       .  S
C1202      C1203   1.413   1_655  A
C1203      C1204   1.404       .  A
C1204      C1205   1.411       .  A
C1205      C1206   1.426   1_455  A
C1206      C1210   1.519   1_556  S
C1207      C1212   1.414       .  A
C1207      C1216   1.398       .  A
C1208      F1224   1.382       .  S
C1208      F1225   1.381   1_554  S
C1208      F1226   1.384       .  S
C1210      F1221   1.383   1_554  S
C1210      F1222   1.385       .  S
C1210      F1223   1.382       .  S
C1212      C1213   1.405       .  A
C1212      C1217   1.520       .  S
C1213      C1214   1.407       .  A
C1213      H1218   1.081       .  S
C1214      C1215   1.428       .  A
C1215      C1216   1.406       .  A
C1215      C1219   1.522   1_556  S
C1216      H1220   1.083       .  S
C1217      F1230   1.385       .  S
C1217      F1231   1.382       .  S
C1217      F1232   1.383       .  S
C1219      F1227   1.383       .  S
C1219      F1228   1.384   1_554  S
C1219      F1229   1.385       .  S
