geometry optimzed in LAMMPS
_audit_creation_date              2020-11-30 
_audit_creation_method            'lammps2cif' 
_symmetry_space_group_name_H-M    'P1' 
_symmetry_Int_Tables_number       1 
_symmetry_cell_setting            triclinic 
loop_ 
_symmetry_equiv_pos_as_xyz 
  x,y,z 
_cell_length_a                    31.0411934 
_cell_length_b                    30.80812054337891 
_cell_length_c                    30.781760135161992 
_cell_angle_alpha                 90.7372699293581 
_cell_angle_beta                  88.13982664179207 
_cell_angle_gamma                 90.76803289193992 
loop_ 
_atom_site_label 
_atom_site_type_symbol 
_atom_site_fract_x 
_atom_site_fract_y 
_atom_site_fract_z 
_atom_site_charge 
N1          N  0.50210019  0.58626769  0.94887482    -0.02400
C2          C  0.47204134  0.60707999  0.92519711     0.00200
C3          C  0.49161134  0.62508270  0.88842517    -0.22700
C4          C  0.53492518  0.62358283  0.89417586    -0.22900
C5          C  0.54024650  0.60338505  0.93333794     0.00100
H6          H  0.47655408  0.64594372  0.86547331     0.13900
H7          H  0.55881923  0.64304024  0.87661039     0.13900
N8          N  0.51014576  0.39728205  0.94724141    -0.02400
C9          C  0.47788939  0.37360002  0.92873789     0.00200
C10         C  0.49351076  0.35125023  0.89251751    -0.22700
C11         C  0.53725923  0.35667227  0.89190014    -0.22900
C12         C  0.54697876  0.37935375  0.92961462     0.00100
H13         H  0.47632382  0.32715282  0.87364813     0.13900
H14         H  0.55915168  0.33590778  0.87337847     0.13900
N15         N  0.58427841  0.08567084  0.50525822    -0.02400
C16         C  0.61185472  0.10205330  0.47384101     0.00200
C17         C  0.62940000  0.14097021  0.48814776    -0.22700
C18         C  0.61807159  0.14469150  0.53134183    -0.22900
C19         C  0.59664566  0.10648950  0.54247693     0.00100
H20         H  0.65480783  0.15979433  0.47217341     0.13900
H21         H  0.63483019  0.16592689  0.55365404     0.13900
N22         N  0.39707266  0.08664437  0.49346618    -0.02400
C23         C  0.37875759  0.10412953  0.45794472     0.00200
C24         C  0.35952910  0.14313576  0.46957123    -0.22700
C25         C  0.35998366  0.14604417  0.51385532    -0.22900
C26         C  0.37770684  0.10806331  0.52792010     0.00100
H27         H  0.33864515  0.16242992  0.45042269     0.13900
H28         H  0.33905500  0.16715279  0.53313443     0.13900
O29         O  0.75348456  0.91564351  0.99825050    -0.71900
O30         O  0.75128677  0.05034011  0.99882698    -0.72800
O31         O  0.76215061  0.98317012  0.06276007    -0.61500
O32         O  0.74681729  0.98190549  0.93460915    -0.69900
O33         O  0.67567675  0.98034345  0.94370622    -0.69400
O34         O  0.69105690  0.98251687  0.07357198    -0.60700
O35         O  0.68046021  0.04652862  0.00970063    -0.73200
O36         O  0.68268328  0.91598247  0.00942625    -0.72000
Cu37       Cu  0.75598699  0.98285972  0.99818310     1.04600
Cu38       Cu  0.68011596  0.98121933  0.00936145     1.04300
C39         C  0.71763327  0.89488098  0.00445889     0.94300
C40         C  0.71482215  0.06936766  0.00478938     0.93500
C41         C  0.72912535  0.98324703  0.08840839     0.85600
C42         C  0.70946616  0.98051371  0.91864882     0.91900
N43         N  0.73037890  0.00606881  0.30733193    -0.02400
C44         C  0.69957889  0.00015406  0.33985192     0.00200
C45         C  0.66743055  0.97226064  0.32561060    -0.22700
C46         C  0.67738062  0.96151872  0.28343492    -0.22900
C47         C  0.71539243  0.98282384  0.27288458     0.00100
H48         H  0.63744650  0.96411318  0.34271620     0.13900
H49         H  0.65714041  0.94327201  0.26157444     0.13900
N50         N  0.69781762  0.25675058  0.02316091    -0.02400
C51         C  0.66168964  0.27982322  0.03455376     0.00200
C52         C  0.66917483  0.30461888  0.07159459    -0.22700
C53         C  0.71189491  0.30119582  0.08002298    -0.22900
C54         C  0.72858017  0.27285257  0.04924729     0.00100
H55         H  0.64833690  0.32957837  0.08522023     0.13900
H56         H  0.72984987  0.32154280  0.10214290     0.13900
O57         O  0.91366571  0.03644956  0.74585327    -0.71900
O58         O  0.04753598  0.03892985  0.74164812    -0.72800
O59         O  0.98014032  0.10116248  0.73600359    -0.61500
O60         O  0.98076162  0.97423104  0.75543259    -0.69900
O61         O  0.98356465  0.96274521  0.68406731    -0.69400
O62         O  0.97836254  0.09127493  0.66439844    -0.60700
O63         O  0.04574138  0.02946118  0.67037119    -0.73200
O64         O  0.91631092  0.02323260  0.67496760    -0.72000
Cu65       Cu  0.98058190  0.03819181  0.74729565     1.04600
Cu66       Cu  0.98103343  0.02636708  0.67106614     1.04300
C67         C  0.89418213  0.02855513  0.71028327     0.94300
C68         C  0.06752645  0.03402029  0.70463508     0.93500
C69         C  0.97830388  0.11626933  0.69786495     0.85600
C70         C  0.98257629  0.94831773  0.72291547     0.91900
N71         N  0.98247276  0.32802301  0.73374649    -0.02400
C72         C  0.97199687  0.36865069  0.72022609     0.00200
C73         C  0.93672896  0.36573942  0.69373486    -0.22700
C74         C  0.92988900  0.32288093  0.68469683    -0.22900
C75         C  0.95932423  0.30066730  0.70803552     0.00100
H76         H  0.92382196  0.39172578  0.67489384     0.13900
H77         H  0.90846583  0.30970479  0.66066944     0.13900
N78         N  0.25395155  0.01969788  0.69272812    -0.02400
C79         C  0.27872944  0.01127993  0.65614022     0.00200
C80         C  0.30219050  0.97392835  0.66060968    -0.22700
C81         C  0.29403654  0.95977889  0.70178796    -0.22900
C82         C  0.26563342  0.98875958  0.72100343     0.00100
H83         H  0.32765027  0.96229854  0.63875426     0.13900
H84         H  0.31185071  0.93509430  0.71800650     0.13900
O85         O  0.25470040  0.00053183  0.05468838    -0.71900
O86         O  0.25311518  0.00062664  0.92808179    -0.72800
O87         O  0.25915194  0.93359725  0.99010099    -0.61500
O88         O  0.25467612  0.06845351  0.99200179    -0.69900
O89         O  0.32592980  0.06962755  0.98812242    -0.69400
O90         O  0.33041918  0.93938670  0.98846562    -0.60700
O91         O  0.32449898  0.00356338  0.92200476    -0.73200
O92         O  0.32619060  0.00558554  0.05382360    -0.72000
Cu93       Cu  0.25295222  0.00078303  0.99126640     1.04600
Cu94       Cu  0.32928262  0.00469528  0.98786589     1.04300
C95         C  0.28981343  0.00255946  0.07457919     0.94300
C96         C  0.28747084  0.00153890  0.90466697     0.93500
C97         C  0.29641678  0.91568599  0.98971258     0.85600
C98         C  0.29051542  0.09011059  0.99070697     0.91900
O99         O  0.06871325  0.02271988  0.33227382    -0.71900
O100        O  0.93821246  0.01917378  0.33574137    -0.72800
O101        O  0.00412095  0.95525242  0.33084915    -0.61500
O102        O  0.00118324  0.08701218  0.33365616    -0.69900
O103        O  0.00221442  0.08607019  0.26151579    -0.69400
O104        O  0.00423277  0.95786505  0.25890328    -0.60700
O105        O  0.93757194  0.02116859  0.26393373    -0.73200
O106        O  0.07069453  0.02417161  0.26037176    -0.72000
Cu107      Cu  0.00340556  0.02106801  0.33564108     1.04600
Cu108      Cu  0.00404878  0.02227509  0.25874712     1.04300
C109        C  0.09058030  0.02366613  0.29637080     0.94300
C110        C  0.91702192  0.02030332  0.30087140     0.93500
C111        C  0.00281707  0.93599931  0.29374779     0.85600
C112        C  0.99855652  0.10674649  0.29742715     0.91900
O113        O  0.05825678  0.26793291  0.00631938    -0.71900
O114        O  0.93212421  0.25981221  0.00916816    -0.72800
O115        O  0.99573056  0.26477483  0.93987128    -0.61500
O116        O  0.99457075  0.26808026  0.07420090    -0.69900
O117        O  0.98932218  0.33953586  0.07129418    -0.69400
O118        O  0.99461823  0.33665752  0.94111078    -0.60700
O119        O  0.92637236  0.33148059  0.00625708    -0.73200
O120        O  0.05724052  0.34002719  0.00664238    -0.72000
Cu121      Cu  0.99531012  0.26266967  0.00714362     1.04600
Cu122      Cu  0.99174654  0.33944179  0.00607418     1.04300
C123        C  0.07789022  0.30432258  0.00764636     0.94300
C124        C  0.90907242  0.29355784  0.00949286     0.93500
C125        C  0.99580912  0.30105498  0.91958774     0.85600
C126        C  0.99137589  0.30512551  0.09373861     0.91900
N127        N  0.96258683  0.31655577  0.28065257    -0.02400
C128        C  0.95191793  0.35073718  0.30746645     0.00200
C129        C  0.91875170  0.33860575  0.33613275    -0.22700
C130        C  0.91076165  0.29540200  0.32914387    -0.22900
C131        C  0.93864847  0.28242295  0.29594617     0.00100
H132        H  0.90663119  0.35721637  0.36387940     0.13900
H133        H  0.89143474  0.27447959  0.35022367     0.13900
N134        N  0.27676647  0.00287016  0.29423945    -0.02400
C135        C  0.30553640  0.99368195  0.32562484     0.00200
C136        C  0.33897703  0.96902452  0.30790299    -0.22700
C137        C  0.33203577  0.96405288  0.26475771    -0.22900
C138        C  0.29450785  0.98538589  0.25718163     0.00100
H139        H  0.36864762  0.96083835  0.32321865     0.13900
H140        H  0.35416568  0.95015760  0.24064669     0.13900
N141        N  0.29226408  0.27892986  0.00755130    -0.02400
C142        C  0.32694543  0.30439175  0.01851953     0.00200
C143        C  0.31570068  0.33457709  0.05036096    -0.22700
C144        C  0.27283939  0.32941510  0.05885373    -0.22900
C145        C  0.25917456  0.29616632  0.03218819     0.00100
H146        H  0.33564515  0.36081551  0.06259850     0.13900
H147        H  0.25278399  0.35068793  0.07887103     0.13900
O148        O  0.94976747  0.68629851  0.00559737    -0.71900
O149        O  0.07762375  0.69051707  0.00474520    -0.72800
O150        O  0.01139590  0.68569556  0.07022066    -0.61500
O151        O  0.01474428  0.68973027  0.93931095    -0.69900
O152        O  0.01298352  0.76158032  0.94128788    -0.69400
O153        O  0.01114464  0.75761920  0.07421605    -0.60700
O154        O  0.07594229  0.76246719  0.00725753    -0.73200
O155        O  0.94743376  0.75816850  0.00966258    -0.72000
Cu156      Cu  0.01357090  0.68569251  0.00467444     1.04600
Cu157      Cu  0.01188976  0.76257645  0.00801094     1.04300
C158        C  0.92826920  0.72128104  0.00902954     0.94300
C159        C  0.09702394  0.72723814  0.00720371     0.93500
C160        C  0.01026778  0.72067534  0.09296583     0.85600
C161        C  0.01375245  0.72584180  0.91939985     0.91900
N162        N  0.99113791  0.71745539  0.27999042    -0.02400
C163        C  0.97424405  0.68442210  0.30485304     0.00200
C164        C  0.93765938  0.69831097  0.32782411    -0.22700
C165        C  0.93433619  0.74173934  0.32099434    -0.22900
C166        C  0.96780436  0.75262437  0.29274904     0.00100
H167        H  0.91984176  0.68052492  0.35280094     0.13900
H168        H  0.91285718  0.76379339  0.33834980     0.13900
N169        N  0.31108602  0.73051732  0.01366123    -0.02400
C170        C  0.34375841  0.70504765  0.02735559     0.00200
C171        C  0.33065493  0.68447428  0.06563622    -0.22700
C172        C  0.28778414  0.69229301  0.07227186    -0.22900
C173        C  0.27684914  0.71960657  0.03965777     0.00100
H174        H  0.34820840  0.65999455  0.08243703     0.13900
H175        H  0.26612532  0.67634580  0.09545166     0.13900
N176        N  0.98515217  0.72954948  0.73469062    -0.02400
C177        C  0.97520773  0.69778229  0.70504594     0.00200
C178        C  0.94559701  0.71313737  0.67632979    -0.22700
C179        C  0.93837735  0.75550605  0.68699671    -0.22900
C180        C  0.96357469  0.76507192  0.72187614     0.00100
H181        H  0.93451615  0.69710988  0.64717959     0.13900
H182        H  0.92090386  0.77834340  0.66800666     0.13900
N183        N  0.70859725  0.01045301  0.70223122    -0.02400
C184        C  0.68371670  0.00169832  0.66712928     0.00200
C185        C  0.65779149  0.96549530  0.67504457    -0.22700
C186        C  0.66420488  0.95319266  0.71669972    -0.22900
C187        C  0.69477350  0.98133913  0.73261129     0.00100
H188        H  0.63193073  0.95366519  0.65509868     0.13900
H189        H  0.64569417  0.92907076  0.73479463     0.13900
N190        N  0.71295775  0.70726819  0.01710780    -0.02400
C191        C  0.67915956  0.68057507  0.02913676     0.00200
C192        C  0.69182600  0.65107814  0.05959436    -0.22700
C193        C  0.73467416  0.65833049  0.06577082    -0.22900
C194        C  0.74683017  0.69219037  0.03911777     0.00100
H195        H  0.67326066  0.62347332  0.07158324     0.13900
H196        H  0.75554538  0.63867635  0.08475455     0.13900
N197        N  0.05864242  0.52369297  0.60341177    -0.02400
C198        C  0.07579567  0.55868961  0.62465552     0.00200
C199        C  0.11282844  0.54618145  0.64503842    -0.22700
C200        C  0.11468929  0.50202815  0.64138123    -0.22900
C201        C  0.07781784  0.48867619  0.62083452     0.00100
H202        H  0.13170523  0.56494606  0.66761942     0.13900
H203        H  0.13395347  0.48216952  0.66184996     0.13900
N204        N  0.04265967  0.51778960  0.41513768    -0.02400
C205        C  0.06555884  0.54857828  0.39192970     0.00200
C206        C  0.10160493  0.53056216  0.37184646    -0.22700
C207        C  0.09617317  0.48680350  0.37483338    -0.22900
C208        C  0.05658405  0.47988068  0.39604646     0.00100
H209        H  0.12358246  0.54648056  0.34893199     0.13900
H210        H  0.11341403  0.46395237  0.35395115     0.13900
C211        C  0.01819917  0.50304227  0.53730206    -0.11200
C212        C  0.05361386  0.52411580  0.55623073     0.05800
C213        C  0.08517331  0.54290714  0.52770804    -0.06500
C214        C  0.08057459  0.54088598  0.48245990    -0.07200
C215        C  0.04471234  0.52059152  0.46296157    -0.01800
C216        C  0.01317836  0.50157018  0.49159221     0.05100
N217        N  0.97546038  0.48102365  0.47530266     0.67600
H218        H  0.99402017  0.48765980  0.55834410     0.16500
H219        H  0.10632556  0.55481979  0.46236924     0.16200
N220        N  0.12362660  0.56228805  0.54383643     0.75300
O221        O  0.97751673  0.44222202  0.46189511    -0.38200
O222        O  0.93909011  0.49659034  0.48566802    -0.38100
O223        O  0.15638430  0.53917237  0.54841338    -0.38800
O224        O  0.12747372  0.60310403  0.54526887    -0.38900
C225        C  0.98054865  0.62522304  0.66955915    -0.11200
C226        C  0.00128077  0.65889594  0.69246604     0.05800
C227        C  0.04669292  0.65953370  0.69207144    -0.06500
C228        C  0.06993543  0.62855592  0.66747214    -0.07200
C229        C  0.04928544  0.59534548  0.64354612    -0.01800
C230        C  0.00362511  0.59470630  0.64430554     0.05100
N231        N  0.97972601  0.56592305  0.61711485     0.67600
H232        H  0.94565596  0.62430955  0.66873202     0.16500
H233        H  0.10473386  0.63097984  0.66718949     0.16200
N234        N  0.07015559  0.69196925  0.71529103     0.75300
O235        O  0.95554747  0.53729215  0.63438661    -0.38200
O236        O  0.97246035  0.57773113  0.57896825    -0.38100
O237        O  0.08284496  0.68337489  0.75271576    -0.38800
O238        O  0.08827091  0.72251289  0.69449478    -0.38900
C239        C  0.00564586  0.65295540  0.37104468    -0.11200
C240        C  0.00122020  0.65111748  0.32545115     0.05800
C241        C  0.02005397  0.61638273  0.30205938    -0.06500
C242        C  0.04209055  0.58443168  0.32423019    -0.07200
C243        C  0.04448718  0.58517262  0.37000989    -0.01800
C244        C  0.02622259  0.62012373  0.39332467     0.05100
N245        N  0.02887004  0.62318853  0.43949495     0.67600
H246        H  0.99225812  0.67984430  0.38982587     0.16500
H247        H  0.05525685  0.55734650  0.30558000     0.16200
N248        N  0.01427346  0.61094795  0.25649634     0.75300
O249        O  0.06095762  0.64197044  0.45591177    -0.38200
O250        O  0.99611700  0.61439134  0.46327125    -0.38100
O251        O  0.04588963  0.61704253  0.23038794    -0.38800
O252        O  0.98145550  0.59055402  0.24359745    -0.38900
C253        C  0.16833959  0.69350520  0.99559789    -0.11200
C254        C  0.14403027  0.72857737  0.01170976     0.05800
C255        C  0.16472548  0.76278033  0.03440829    -0.06500
C256        C  0.20883419  0.76056932  0.04173651    -0.07200
C257        C  0.23237205  0.72477842  0.02676313    -0.01800
C258        C  0.21239152  0.69160605  0.00259430     0.05100
N259        N  0.23635123  0.65513968  0.98630627     0.67600
H260        H  0.15303508  0.66726712  0.97778810     0.16500
H261        H  0.22436008  0.78586061  0.06065734     0.16200
N262        N  0.14088694  0.79811181  0.05316771     0.75300
O263        O  0.22729998  0.61749022  0.99977398    -0.38200
O264        O  0.26617884  0.66042002  0.95794509    -0.38100
O265        O  0.11827915  0.79263729  0.08752597    -0.38800
O266        O  0.14425577  0.83537176  0.03676653    -0.38900
C267        C  0.03502708  0.74258959  0.16707456    -0.11200
C268        C  0.00715224  0.71789401  0.14126203     0.05800
C269        C  0.97709197  0.68964091  0.16200119    -0.06500
C270        C  0.97416280  0.68791582  0.20754474    -0.07200
C271        C  0.00186771  0.71262073  0.23379878    -0.01800
C272        C  0.03337390  0.73943669  0.21281006     0.05100
N273        N  0.06441675  0.76298530  0.23742740     0.67600
H274        H  0.05903848  0.76356372  0.15155980     0.16500
H275        H  0.94849728  0.66865423  0.22261117     0.16200
N276        N  0.94709058  0.66477271  0.13731055     0.75300
O277        O  0.08965753  0.74242795  0.26074153    -0.38200
O278        O  0.07231119  0.80243459  0.22939448    -0.38100
O279        O  0.94975706  0.62394851  0.13568064    -0.38800
O280        O  0.91440886  0.68286577  0.12272707    -0.38900
C281        C  0.86117810  0.68065092  0.99626987    -0.11200
C282        C  0.88097947  0.71793119  0.01322728     0.05800
C283        C  0.85571305  0.74862561  0.03672955    -0.06500
C284        C  0.81147096  0.74061595  0.04393780    -0.07200
C285        C  0.79236186  0.70220685  0.02840988    -0.01800
C286        C  0.81754176  0.67219225  0.00409154     0.05100
N287        N  0.79972987  0.63236574  0.98779373     0.67600
H288        H  0.88004781  0.65690810  0.97794997     0.16500
H289        H  0.79231664  0.76363356  0.06288615     0.16200
N290        N  0.87487309  0.78646522  0.05576361     0.75300
O291        O  0.80206174  0.62471358  0.94741786    -0.38200
O292        O  0.79393284  0.60098142  0.01335892    -0.38100
O293        O  0.87133557  0.82288187  0.03802645    -0.38800
O294        O  0.89503212  0.78360716  0.09054557    -0.38900
C295        C  0.98851399  0.69125452  0.85073476    -0.11200
C296        C  0.01132790  0.72528740  0.87086780     0.05800
C297        C  0.03021882  0.75779558  0.84421022    -0.06500
C298        C  0.02431272  0.75676206  0.79898435    -0.07200
C299        C  0.99886079  0.72431017  0.77917691    -0.01800
C300        C  0.98182769  0.69063980  0.80577469     0.05100
N301        N  0.95507451  0.65704098  0.78839943     0.67600
H302        H  0.97385991  0.66575691  0.87038684     0.16500
H303        H  0.03902392  0.78215097  0.77934912     0.16200
N304        N  0.05613655  0.79167234  0.86234914     0.75300
O305        O  0.97065517  0.61992600  0.78116130    -0.38200
O306        O  0.91469372  0.66142088  0.78986025    -0.38100
O307        O  0.09663480  0.78838557  0.86088064    -0.38800
O308        O  0.03942797  0.82780466  0.87191344    -0.38900
C309        C  0.96376350  0.42627400  0.33386024    -0.11200
C310        C  0.98174233  0.38616493  0.32160687     0.05800
C311        C  0.02342729  0.37685814  0.33560497    -0.06500
C312        C  0.04500863  0.40643986  0.36269486    -0.07200
C313        C  0.02742062  0.44697599  0.37475993    -0.01800
C314        C  0.98602725  0.45677661  0.35943482     0.05100
N315        N  0.96592186  0.49750085  0.36839863     0.67600
H316        H  0.93132628  0.43354021  0.32438355     0.16500
H317        H  0.07674205  0.39809034  0.37335869     0.16200
N318        N  0.04413948  0.33711040  0.32350968     0.75300
O319        O  0.96953269  0.52661933  0.34009429    -0.38200
O320        O  0.93370564  0.49842213  0.39441239    -0.38100
O321        O  0.05877268  0.33220631  0.28506776    -0.38800
O322        O  0.05702287  0.31247683  0.35269800    -0.38900
C323        C  0.14012090  0.27657934  0.04540247    -0.11200
C324        C  0.12455368  0.30345228  0.01301815     0.05800
C325        C  0.15372341  0.32597467  0.98541764    -0.06500
C326        C  0.19800730  0.32117437  0.99053617    -0.07200
C327        C  0.21343529  0.29358035  0.02240068    -0.01800
C328        C  0.18428620  0.27185734  0.05049516     0.05100
N329        N  0.19924693  0.24647601  0.08537031     0.67600
H330        H  0.11777571  0.25937229  0.06703611     0.16500
H331        H  0.22051901  0.33950233  0.97006189     0.16200
N332        N  0.13890071  0.35270870  0.95153998     0.75300
O333        O  0.19731675  0.26144672  0.12372388    -0.38200
O334        O  0.21838181  0.21124698  0.07739678    -0.38100
O335        O  0.13629419  0.39318480  0.95756479    -0.38800
O336        O  0.13498244  0.33696594  0.91380549    -0.38900
C337        C  0.00056420  0.28365126  0.21598839    -0.11200
C338        C  0.97720738  0.31843621  0.23504648     0.05800
C339        C  0.96215178  0.35048928  0.20685689    -0.06500
C340        C  0.96870270  0.34607786  0.16154084    -0.07200
C341        C  0.98884051  0.30944409  0.14248708    -0.01800
C342        C  0.00557251  0.27840782  0.17052369     0.05100
N343        N  0.02735711  0.24104947  0.15348502     0.67600
H344        H  0.01393950  0.25932342  0.23647832     0.16500
H345        H  0.95565150  0.37063877  0.14095666     0.16200
N346        N  0.93711870  0.38607146  0.22318215     0.75300
O347        O  0.06760710  0.24260068  0.14642603    -0.38200
O348        O  0.00770957  0.20496408  0.15201502    -0.38100
O349        O  0.95263900  0.42410156  0.22149125    -0.38800
O350        O  0.89734971  0.38059008  0.23147649    -0.38900
C351        C  0.15849030  0.99742299  0.32918840    -0.11200
C352        C  0.13907746  0.02243629  0.29743828     0.05800
C353        C  0.16651981  0.04515502  0.26782088    -0.06500
C354        C  0.21177175  0.04125990  0.26946030    -0.07200
C355        C  0.23118106  0.01404539  0.29953674    -0.01800
C356        C  0.20358294  0.99248294  0.33003170     0.05100
N357        N  0.22035592  0.96236902  0.35977650     0.67600
H358        H  0.13830393  0.97952604  0.35233275     0.16500
H359        H  0.23179401  0.05890732  0.24612880     0.16200
N360        N  0.14904878  0.07299325  0.23631014     0.75300
O361        O  0.21914313  0.97129724  0.39991534    -0.38200
O362        O  0.22751822  0.92390020  0.34723093    -0.38100
O363        O  0.14661397  0.11319236  0.24420327    -0.38800
O364        O  0.14361738  0.05893161  0.19817598    -0.38900
C365        C  0.95620409  0.16470573  0.26523580    -0.11200
C366        C  0.98643392  0.15275916  0.29595802     0.05800
C367        C  0.00134604  0.18405299  0.32569140    -0.06500
C368        C  0.98553545  0.22630664  0.32465230    -0.07200
C369        C  0.95450445  0.23769460  0.29477654    -0.01800
C370        C  0.93948216  0.20660748  0.26508154     0.05100
N371        N  0.90627904  0.21670745  0.23586882     0.67600
H372        H  0.94404754  0.14080607  0.24243821     0.16500
H373        H  0.99711371  0.25030774  0.34763575     0.16200
N374        N  0.03344395  0.17384815  0.35601135     0.75300
O375        O  0.91475994  0.21843137  0.19556109    -0.38200
O376        O  0.86750372  0.21696289  0.24950841    -0.38100
O377        O  0.07267354  0.18071923  0.34605149    -0.38800
O378        O  0.02239920  0.16605704  0.39496773    -0.38900
C379        C  0.01705780  0.86152022  0.32057021    -0.11200
C380        C  0.99758266  0.88827653  0.29054187     0.05800
C381        C  0.97152334  0.86907996  0.25838643    -0.06500
C382        C  0.96415950  0.82419896  0.25780068    -0.07200
C383        C  0.98272386  0.79787896  0.28843356    -0.01800
C384        C  0.01003630  0.81649277  0.31950118     0.05100
N385        N  0.02906011  0.79013368  0.35143166     0.67600
H386        H  0.03725645  0.87564635  0.34524609     0.16500
H387        H  0.94241177  0.81006419  0.23450244     0.16200
N388        N  0.94942171  0.89506229  0.22832644     0.75300
O389        O  0.06499027  0.77262623  0.34342419    -0.38200
O390        O  0.00960694  0.78365980  0.38742654    -0.38100
O391        O  0.96427986  0.89884774  0.18990320    -0.38800
O392        O  0.91193475  0.90817684  0.23797549    -0.38900
C393        C  0.25836384  0.16345853  0.97612833    -0.11200
C394        C  0.29207244  0.13911273  0.99236408     0.05800
C395        C  0.32829736  0.16227260  0.00809307    -0.06500
C396        C  0.32876557  0.20794285  0.01004838    -0.07200
C397        C  0.29437381  0.23266914  0.99545921    -0.01800
C398        C  0.25977713  0.20948076  0.97588331     0.05100
N399        N  0.22731850  0.23156157  0.95300159     0.67600
H400        H  0.23148208  0.14650543  0.96167357     0.16500
H401        H  0.35576742  0.22407541  0.02509047     0.16200
N402        N  0.36445958  0.13997346  0.02417405     0.75300
O403        O  0.18871635  0.21805886  0.95503657    -0.38200
O404        O  0.23823772  0.25970086  0.92519267    -0.38100
O405        O  0.39915078  0.13863529  0.00168137    -0.38800
O406        O  0.36414911  0.12838204  0.06334876    -0.38900
C407        C  0.30575273  0.03363787  0.14678337    -0.11200
C408        C  0.28723438  0.00044234  0.12195061     0.05800
C409        C  0.26440939  0.96617390  0.14268742    -0.06500
C410        C  0.26339974  0.96376488  0.18792165    -0.07200
C411        C  0.28367722  0.99580075  0.21270487    -0.01800
C412        C  0.30372167  0.03178452  0.19212476     0.05100
N413        N  0.32412031  0.06535829  0.21687491     0.67600
H414        H  0.32216543  0.06071407  0.13095644     0.16500
H415        H  0.24881367  0.93564484  0.20362420     0.16200
N416        N  0.24479797  0.93200634  0.11808835     0.75300
O417        O  0.36335396  0.06216999  0.22567818    -0.38200
O418        O  0.30560144  0.10129592  0.22255990    -0.38100
O419        O  0.26352959  0.89606238  0.11354052    -0.38800
O420        O  0.20594507  0.93504587  0.10780346    -0.38900
C421        C  0.29345641  0.79244266  0.96694340    -0.11200
C422        C  0.31484582  0.77635099  0.00298855     0.05800
C423        C  0.32957959  0.80677330  0.03421739    -0.06500
C424        C  0.32335684  0.85151520  0.02884214    -0.07200
C425        C  0.30156389  0.86753961  0.99324102    -0.01800
C426        C  0.28717818  0.83749919  0.96163502     0.05100
N427        N  0.26732592  0.85233334  0.92342082     0.67600
H428        H  0.28060031  0.76969475  0.94341537     0.16500
H429        H  0.33456335  0.87395309  0.05355289     0.16200
N430        N  0.34699185  0.79234178  0.07386047     0.75300
O431        O  0.29030542  0.86885738  0.89319802    -0.38200
O432        O  0.22820984  0.84338852  0.91719513    -0.38100
O433        O  0.38625156  0.78255854  0.07520215    -0.38800
O434        O  0.32366568  0.79166432  0.10820268    -0.38900
C435        C  0.30240104  0.02024541  0.78381908    -0.11200
C436        C  0.26719248  0.99629063  0.76800712     0.05800
C437        C  0.23921847  0.97428224  0.79696325    -0.06500
C438        C  0.24703510  0.97583128  0.84137541    -0.07200
C439        C  0.28254543  0.99935673  0.85740055    -0.01800
C440        C  0.30996259  0.02220092  0.82835775     0.05100
N441        N  0.34457875  0.04880827  0.84347053     0.67600
H442        H  0.32400211  0.03569653  0.76232282     0.11700
H443        H  0.22552115  0.95852730  0.86320235     0.16200
N444        N  0.20317771  0.94981844  0.78173875     0.75300
O445        O  0.38177838  0.03318140  0.84583703    -0.38200
O446        O  0.33953829  0.08922896  0.84776769    -0.38100
O447        O  0.20415583  0.90889657  0.78157763    -0.38800
O448        O  0.16784805  0.96855723  0.77662819    -0.38900
C449        C  0.03707145  0.38429653  0.67354527    -0.11200
C450        C  0.00491871  0.39987416  0.70284945     0.05800
C451        C  0.99773881  0.44489343  0.70531182    -0.06500
C452        C  0.02120558  0.47291813  0.67770834    -0.07200
C453        C  0.05146497  0.45702291  0.64660397    -0.01800
C454        C  0.06057237  0.41245667  0.64593778     0.05100
N455        N  0.09296321  0.39529209  0.61678609     0.67600
H456        H  0.04235451  0.34982365  0.67041090     0.16500
H457        H  0.01604325  0.50746790  0.68100015     0.16200
N458        N  0.96560123  0.46243003  0.73460210     0.75300
O459        O  0.13139318  0.39322128  0.62867850    -0.38200
O460        O  0.08211932  0.37614002  0.58227923    -0.38100
O461        O  0.97694111  0.48076043  0.76936997    -0.38800
O462        O  0.92795934  0.46800056  0.72161826    -0.38900
C463        C  0.96894105  0.28303412  0.80039673    -0.11200
C464        C  0.99111621  0.31787487  0.77924531     0.05800
C465        C  0.01800765  0.34440693  0.80520153    -0.06500
C466        C  0.01964873  0.33764910  0.85040239    -0.07200
C467        C  0.99680577  0.30343767  0.87098950    -0.01800
C468        C  0.97250000  0.27507261  0.84502212     0.05100
N469        N  0.94862095  0.23969094  0.86388742     0.67600
H470        H  0.94668976  0.26255478  0.78314908     0.16500
H471        H  0.03941271  0.35927489  0.86964881     0.16200
N472        N  0.04463910  0.37783682  0.78641070     0.75300
O473        O  0.91114377  0.24586204  0.87964377    -0.38200
O474        O  0.96172535  0.20141447  0.85792122    -0.38100
O475        O  0.04233224  0.41608777  0.80140936    -0.38800
O476        O  0.07646046  0.36750021  0.76208100    -0.38900
C477        C  0.14218671  0.05610928  0.72936013    -0.11200
C478        C  0.11605793  0.03280105  0.70036920     0.05800
C479        C  0.13693643  0.00916663  0.66608771    -0.06500
C480        C  0.18215563  0.00853760  0.66199151    -0.07200
C481        C  0.20843972  0.03077163  0.69148928    -0.01800
C482        C  0.18781712  0.05570741  0.72493237     0.05100
N483        N  0.21281584  0.08113578  0.75432987     0.67600
H484        H  0.12711697  0.07529552  0.75522973     0.16500
H485        H  0.19692189  0.98799563  0.63702467     0.16200
N486        N  0.11280783  0.98265546  0.63689870     0.75300
O487        O  0.23851156  0.10986980  0.73964610    -0.38200
O488        O  0.20477882  0.07944061  0.79473712    -0.38100
O489        O  0.11121433  0.99291773  0.59743680    -0.38800
O490        O  0.09976214  0.94552479  0.64866449    -0.38900
C491        C  0.92943780  0.22658330  0.69747878    -0.11200
C492        C  0.96585989  0.25341174  0.70262576     0.05800
C493        C  0.00716249  0.23465634  0.70212702    -0.06500
C494        C  0.01102927  0.18957271  0.69796505    -0.07200
C495        C  0.97440619  0.16309354  0.69370254    -0.01800
C496        C  0.93343092  0.18173780  0.69326757     0.05100
N497        N  0.89538889  0.15521578  0.69199715     0.67600
H498        H  0.89746159  0.24031750  0.69836148     0.16500
H499        H  0.04261888  0.17509726  0.69897706     0.16200
N500        N  0.04543797  0.26073116  0.70456309     0.75300
O501        O  0.87448703  0.14723869  0.72687322    -0.38200
O502        O  0.87858831  0.14679818  0.65602994    -0.38100
O503        O  0.06521364  0.26253165  0.73972594    -0.38800
O504        O  0.06515619  0.27139750  0.66975586    -0.38900
C505        C  0.95303199  0.83511175  0.76115778    -0.11200
C506        C  0.97646403  0.81034891  0.73040942     0.05800
C507        C  0.00660963  0.83099929  0.70197130    -0.06500
C508        C  0.00948166  0.87615106  0.70160799    -0.07200
C509        C  0.98355133  0.90122344  0.72980548    -0.01800
C510        C  0.95709875  0.88049154  0.76170873     0.05100
N511        N  0.93200898  0.90504108  0.79275165     0.67600
H512        H  0.93007582  0.81936830  0.78328258     0.16500
H513        H  0.03093190  0.89174556  0.67791974     0.16200
N514        N  0.03296925  0.80678967  0.67163404     0.75300
O515        O  0.89293432  0.91238230  0.78591816    -0.38200
O516        O  0.94673492  0.91303990  0.82978026    -0.38100
O517        O  0.01675239  0.79166320  0.63746932    -0.38800
O518        O  0.07343365  0.81015074  0.67345370    -0.38900
C519        C  0.81849663  0.05280944  0.73283800    -0.11200
C520        C  0.84586696  0.02478601  0.70856964     0.05800
C521        C  0.82668646  0.99467244  0.67968890    -0.06500
C522        C  0.78181396  0.99337747  0.67513255    -0.07200
C523        C  0.75435436  0.02119010  0.69919091    -0.01800
C524        C  0.77318192  0.05164525  0.72793274     0.05100
N525        N  0.74650637  0.08166758  0.75196873     0.67600
H526        H  0.83238963  0.07636177  0.75489092     0.16500
H527        H  0.76792070  0.96829181  0.65474681     0.16200
N528        N  0.85210455  0.96247964  0.65741337     0.75300
O529        O  0.75329710  0.08988487  0.79145255    -0.38200
O530        O  0.71782305  0.10220942  0.73296563    -0.38100
O531        O  0.86585395  0.93069182  0.67814204    -0.38800
O532        O  0.85550694  0.96241320  0.61645740    -0.38900
C533        C  0.84872905  0.25966031  0.05099449    -0.11200
C534        C  0.86247535  0.28744064  0.01721347     0.05800
C535        C  0.83172564  0.30745548  0.99188858    -0.06500
C536        C  0.78781721  0.30047075  0.00152745    -0.07200
C537        C  0.77437100  0.27400027  0.03631399    -0.01800
C538        C  0.80494360  0.25316213  0.06088794     0.05100
N539        N  0.79186182  0.22567726  0.09608231     0.67600
H540        H  0.87217481  0.24373981  0.07047524     0.16500
H541        H  0.76410576  0.31656949  0.98252242     0.16200
N542        N  0.84455833  0.33362353  0.95563572     0.75300
O543        O  0.78507310  0.18573525  0.08925969    -0.38200
O544        O  0.78566324  0.24153601  0.13372587    -0.38100
O545        O  0.84982092  0.31612839  0.91858938    -0.38800
O546        O  0.84289050  0.37442545  0.95896792    -0.38900
C547        C  0.84678539  0.99973907  0.33927263    -0.11200
C548        C  0.86849235  0.02045313  0.30413911     0.05800
C549        C  0.84319480  0.04146899  0.27357871    -0.06500
C550        C  0.79786031  0.04032168  0.27786863    -0.07200
C551        C  0.77606696  0.01681146  0.31101535    -0.01800
C552        C  0.80134862  0.99688143  0.34236641     0.05100
N553        N  0.78158413  0.97028410  0.37527704     0.67600
H554        H  0.86528350  0.98334972  0.36334938     0.16500
H555        H  0.77942553  0.05657012  0.25368273     0.16200
N556        N  0.86290664  0.06390194  0.23765564     0.75300
O557        O  0.76743815  0.93292151  0.36557538    -0.38200
O558        O  0.78204248  0.98229179  0.41460251    -0.38100
O559        O  0.86979418  0.04376462  0.20220469    -0.38800
O560        O  0.86459529  0.10483781  0.23834595    -0.38900
C561        C  0.68712927  0.13596475  0.04315650    -0.11200
C562        C  0.71103683  0.11795010  0.00794164     0.05800
C563        C  0.72870888  0.14656963  0.97632826    -0.06500
C564        C  0.72216156  0.19194084  0.98038202    -0.07200
C565        C  0.69798360  0.20988627  0.01559521    -0.01800
C566        C  0.68134101  0.18107009  0.04772340     0.05100
N567        N  0.66156021  0.19743698  0.08706594     0.67600
H568        H  0.67391858  0.11483353  0.06828721     0.16500
H569        H  0.73662565  0.21342436  0.95629256     0.16200
N570        N  0.75230464  0.12997237  0.93929059     0.75300
O571        O  0.62102192  0.19798857  0.09134864    -0.38200
O572        O  0.68420439  0.20411175  0.11987024    -0.38100
O573        O  0.73234701  0.11436737  0.90748920    -0.38800
O574        O  0.79254619  0.13602679  0.93593704    -0.38900
C575        C  0.71661729  0.02178525  0.15787294    -0.11200
C576        C  0.73449335  0.98615105  0.13562641     0.05800
C577        C  0.75311290  0.95262144  0.15927297    -0.06500
C578        C  0.74953780  0.95337083  0.20487136    -0.07200
C579        C  0.72921542  0.98790058  0.22698688    -0.01800
C580        C  0.71398432  0.02305789  0.20322389     0.05100
N581        N  0.69292937  0.05883497  0.22454349     0.67600
H582        H  0.70270872  0.04785960  0.13985003     0.16500
H583        H  0.76105738  0.92615823  0.22299475     0.16200
N584        N  0.77326485  0.91653707  0.13755764     0.75300
O585        O  0.70797589  0.09675384  0.21944245    -0.38200
O586        O  0.65540053  0.05375718  0.24083403    -0.38100
O587        O  0.81028977  0.92141920  0.12001454    -0.38800
O588        O  0.75844414  0.87867110  0.14355977    -0.38900
C589        C  0.73603460  0.96441525  0.79800426    -0.11200
C590        C  0.70164388  0.98564869  0.77962216     0.05800
C591        C  0.66924675  0.00410844  0.80688601    -0.06500
C592        C  0.67157483  0.00105897  0.85207605    -0.07200
C593        C  0.70599871  0.97993296  0.87077768    -0.01800
C594        C  0.73825891  0.96090078  0.84329522     0.05100
N595        N  0.77167212  0.93535291  0.86077022     0.67600
H596        H  0.75991732  0.94852801  0.77706786     0.16500
H597        H  0.64676130  0.01596456  0.87261446     0.16200
N598        N  0.63312621  0.02501053  0.78885998     0.75300
O599        O  0.76203317  0.90278554  0.88378205    -0.38200
O600        O  0.81059731  0.94270929  0.84985529    -0.38100
O601        O  0.59567512  0.00927212  0.79464911    -0.38800
O602        O  0.63867607  0.05860011  0.76622678    -0.38900
C603        C  0.68490175  0.77926438  0.03737372    -0.11200
C604        C  0.70942375  0.75337827  0.00825346     0.05800
C605        C  0.73674635  0.77464436  0.97720751    -0.06500
C606        C  0.74009887  0.82049849  0.97704899    -0.07200
C607        C  0.71555125  0.84620999  0.00641346    -0.01800
C608        C  0.68742889  0.82483765  0.03658015     0.05100
N609        N  0.66317206  0.84889085  0.06872531     0.67600
H610        H  0.66494892  0.76383746  0.06240753     0.16500
H611        H  0.76110634  0.83610537  0.95301022     0.16200
N612        N  0.76029095  0.75025319  0.94478991     0.75300
O613        O  0.62553707  0.86074338  0.06070057    -0.38200
O614        O  0.67535329  0.84992355  0.10743707    -0.38100
O615        O  0.74002641  0.73213538  0.91453161    -0.38800
O616        O  0.80050892  0.75591679  0.94012318    -0.38900
C617        C  0.28565750  0.04249282  0.58290601    -0.11200
C618        C  0.29694807  0.04459080  0.62633616     0.05800
C619        C  0.33435491  0.06843712  0.63742706    -0.06500
C620        C  0.36050787  0.08810836  0.60494816    -0.07200
C621        C  0.35020067  0.08463497  0.56108655    -0.01800
C622        C  0.31098593  0.06298321  0.55040125     0.05100
N623        N  0.29534867  0.06221095  0.50718310     0.67600
H624        H  0.25739200  0.02378535  0.57398138     0.16500
H625        H  0.38924066  0.10594031  0.61403019     0.16200
N626        N  0.34734492  0.07105216  0.68145563     0.75300
O627        O  0.28522141  0.02613758  0.49021517    -0.38200
O628        O  0.27886385  0.09614015  0.49278264    -0.38100
O629        O  0.38151272  0.05287878  0.69226860    -0.38800
O630        O  0.32900410  0.09749771  0.70738545    -0.38900
C631        C  0.36024090  0.03106653  0.42724621    -0.11200
C632        C  0.36159105  0.07625684  0.42182288     0.05800
C633        C  0.34040260  0.09366433  0.38584980    -0.06500
C634        C  0.31616628  0.06631392  0.35873802    -0.07200
C635        C  0.31500333  0.02121763  0.36424807    -0.01800
C636        C  0.33730832  0.00350986  0.39931647     0.05100
N637        N  0.33875475  0.95738437  0.40582108     0.67600
H638        H  0.37597425  0.01685493  0.45444740     0.16500
H639        H  0.30211018  0.07997056  0.33025306     0.16200
N640        N  0.34630742  0.13818074  0.37384887     0.75300
O641        O  0.37265017  0.94023366  0.41884296    -0.38200
O642        O  0.30616330  0.93362192  0.39913093    -0.38100
O643        O  0.31462273  0.15997426  0.36218055    -0.38800
O644        O  0.38388744  0.15407057  0.36965519    -0.38900
C645        C  0.66233102  0.06898181  0.56791228    -0.11200
C646        C  0.61923896  0.08176229  0.57643340     0.05800
C647        C  0.60033290  0.07308164  0.61761548    -0.06500
C648        C  0.62351113  0.04986313  0.64802905    -0.07200
C649        C  0.66584570  0.03540844  0.63868639    -0.01800
C650        C  0.68557370  0.04626663  0.59855949     0.05100
N651        N  0.72864288  0.03327979  0.58785840     0.67600
H652        H  0.67796959  0.07623286  0.53681752     0.16500
H653        H  0.60780297  0.04176937  0.67888794     0.16200
N654        N  0.55768548  0.08720796  0.62900360     0.75300
O655        O  0.73538113  0.99624965  0.57123870    -0.38200
O656        O  0.75884907  0.06108745  0.58833426    -0.38100
O657        O  0.52980830  0.06016695  0.64294809    -0.38800
O658        O  0.55011536  0.12727576  0.63231227    -0.38900
C659        C  0.65777419  0.09606876  0.40511443    -0.11200
C660        C  0.63602406  0.07510109  0.44014126     0.05800
C661        C  0.64331908  0.03022930  0.44532623    -0.06500
C662        C  0.67026078  0.00773930  0.41535186    -0.07200
C663        C  0.68983031  0.02819078  0.37893834    -0.01800
C664        C  0.68471234  0.07338223  0.37513266     0.05100
N665        N  0.70532054  0.09660133  0.34017333     0.67600
H666        H  0.65376214  0.13059194  0.40074802     0.16500
H667        H  0.67312377  0.97290220  0.41861948     0.16200
N668        N  0.62308510  0.00642009  0.48014493     0.75300
O669        O  0.74518484  0.10484344  0.34148657    -0.38200
O670        O  0.68275196  0.11729089  0.31432130    -0.38100
O671        O  0.58418933  0.99460519  0.47729999    -0.38800
O672        O  0.64616837  0.98837481  0.50748117    -0.38900
C673        C  0.51063099  0.05887582  0.52889957    -0.11200
C674        C  0.53753886  0.08068135  0.49805238     0.05800
C675        C  0.51652178  0.10007642  0.46272784    -0.06500
C676        C  0.47118481  0.09948690  0.46077549    -0.07200
C677        C  0.44413208  0.07987247  0.49291821    -0.01800
C678        C  0.46487004  0.05770062  0.52639442     0.05100
N679        N  0.44003457  0.03282625  0.55742842     0.67600
H680        H  0.52550434  0.04231429  0.55521474     0.16500
H681        H  0.45714808  0.11653772  0.43425615     0.16200
N682        N  0.54003097  0.12283604  0.42927413     0.75300
O683        O  0.41360572  0.00436230  0.54448772    -0.38200
O684        O  0.44842930  0.03509798  0.59724147    -0.38100
O685        O  0.54675265  0.10449541  0.39283715    -0.38800
O686        O  0.54530053  0.16340768  0.43273791    -0.38900
C687        C  0.56460813  0.31264217  0.97134755    -0.11200
C688        C  0.57670764  0.35481735  0.95749706     0.05800
C689        C  0.61870142  0.36972705  0.96530561    -0.06500
C690        C  0.64731315  0.34318175  0.98719233    -0.07200
C691        C  0.63482981  0.30136984  0.00188488    -0.01800
C692        C  0.59312795  0.28608437  0.99326852     0.05100
N693        N  0.57914080  0.24394086  0.00721747     0.67600
H694        H  0.53286001  0.29988987  0.96429789     0.16500
H695        H  0.67902315  0.35596679  0.99441760     0.16200
N696        N  0.63241602  0.41203558  0.95183540     0.75300
O697        O  0.54669972  0.23985046  0.03267293    -0.38200
O698        O  0.59841169  0.21058089  0.99303976    -0.38100
O699        O  0.62609709  0.44427651  0.97681584    -0.38800
O700        O  0.64598546  0.41792542  0.91325547    -0.38900
C701        C  0.40204002  0.34545186  0.92901306    -0.11200
C702        C  0.43878770  0.35653501  0.95270347     0.05800
C703        C  0.43985283  0.34376027  0.99664413    -0.06500
C704        C  0.40486710  0.32087208  0.01551811    -0.07200
C705        C  0.36739164  0.31186924  0.99254014    -0.01800
C706        C  0.36640964  0.32389855  0.94862061     0.05100
N707        N  0.32832640  0.31740961  0.92446554     0.67600
H708        H  0.40072433  0.35424242  0.89510798     0.16500
H709        H  0.40556980  0.31307716  0.04973611     0.16200
N710        N  0.47532110  0.35475207  0.02333353     0.75300
O711        O  0.30041181  0.34678559  0.92397827    -0.38200
O712        O  0.32532954  0.28502977  0.89919679    -0.38100
O713        O  0.47797150  0.39280482  0.03867524    -0.38800
O714        O  0.49491051  0.32482549  0.04175025    -0.38900
C715        C  0.61760256  0.61229244  0.94898425    -0.11200
C716        C  0.57473967  0.62088066  0.96140073     0.05800
C717        C  0.56651409  0.65362871  0.99332779    -0.06500
C718        C  0.60105401  0.67562860  0.01294879    -0.07200
C719        C  0.64386275  0.66680694  0.00043716    -0.01800
C720        C  0.65186222  0.63478935  0.96803431     0.05100
N721        N  0.69495649  0.62381178  0.95507683     0.67600
H722        H  0.62451126  0.58862161  0.92343309     0.16500
H723        H  0.59440841  0.69906730  0.03878172     0.16200
N724        N  0.52349433  0.66660215  0.00465193     0.75300
O725        O  0.70886963  0.58647012  0.96267901    -0.38200
O726        O  0.71607281  0.64831526  0.92950361    -0.38100
O727        O  0.49930771  0.64199151  0.02733451    -0.38800
O728        O  0.51291777  0.70560087  0.99974295    -0.38900
C729        C  0.37381105  0.63461374  0.99756747    -0.11200
C730        C  0.37383148  0.68067503  0.99679222     0.05800
C731        C  0.40306970  0.70147202  0.96790370    -0.06500
C732        C  0.43350702  0.67693054  0.94376357    -0.07200
C733        C  0.43531141  0.63113191  0.94686736    -0.01800
C734        C  0.40394941  0.61003334  0.97312153     0.05100
N735        N  0.40135996  0.56367067  0.97426657     0.67600
H736        H  0.34993532  0.61716019  0.01722381     0.16500
H737        H  0.45712492  0.69442346  0.92386761     0.16200
N738        N  0.40353310  0.74755332  0.96370190     0.75300
O739        O  0.38915381  0.54274599  0.94125851    -0.38200
O740        O  0.40442452  0.54431944  0.00989127    -0.38100
O741        O  0.42720351  0.77040726  0.98773437    -0.38800
O742        O  0.38828293  0.76412531  0.93031775    -0.38900
C743        C  0.48936338  0.51404845  0.91399650    -0.11200
C744        C  0.50038882  0.53864657  0.95097767     0.05800
C745        C  0.51483801  0.51562609  0.98711848    -0.06500
C746        C  0.51844425  0.46956008  0.98546132    -0.07200
C747        C  0.50661856  0.44495888  0.94851040    -0.01800
C748        C  0.49223465  0.46853155  0.91234859     0.05100
N749        N  0.48228974  0.44713791  0.87242003     0.67600
H750        H  0.47959685  0.53049363  0.88512792     0.16500
H751        H  0.53045050  0.45300874  0.01329096     0.16200
N752        N  0.52513459  0.53862760  0.02605150     0.75300
O753        O  0.51123815  0.44368293  0.84288485    -0.38200
O754        O  0.44336130  0.44107030  0.86310103    -0.38100
O755        O  0.49525598  0.55258671  0.05102918    -0.38800
O756        O  0.56376818  0.54202506  0.03728596    -0.38900
loop_ 
_geom_bond_atom_site_label_1 
_geom_bond_atom_site_label_2 
_geom_bond_distance 
_geom_bond_site_symmetry_2 
_ccdc_geom_bond_type 
N1            C5   1.365       .  A
N1            C2   1.373       .  A
N1          C744   1.470       .  S
C2            C3   1.386       .  A
C2          C733   1.501       .  S
C3            C4   1.363       .  A
C3            H6   1.083       .  S
C4            C5   1.379       .  A
C4            H7   1.083       .  S
C5          C716   1.489       .  S
N8           C12   1.370       .  A
N8            C9   1.366       .  A
N8          C747   1.474       .  S
C9           C10   1.381       .  A
C9          C702   1.493       .  S
C10          C11   1.366       .  A
C10          H13   1.082       .  S
C11          C12   1.387       .  A
C11          H14   1.083       .  S
C12         C688   1.499       .  S
N15          C19   1.369       .  A
N15          C16   1.367       .  A
N15         C674   1.480       .  S
C16          C17   1.383       .  A
C16         C660   1.507       .  S
C17          C18   1.368       .  A
C17          H20   1.082       .  S
C18          C19   1.385       .  A
C18          H21   1.083       .  S
C19         C646   1.499       .  S
N22          C26   1.369       .  A
N22          C23   1.368       .  A
N22         C677   1.478       .  S
C23          C24   1.387       .  A
C23         C632   1.503       .  S
C24          C25   1.365       .  A
C24          H27   1.079       .  S
C25          C26   1.380       .  A
C25          H28   1.083       .  S
C26         C621   1.496       .  S
O29         Cu37   2.071       .  S
O29          C39   1.286   1_556  A
O30         Cu37   2.086   1_545  S
O30          C40   1.288   1_556  A
O31         Cu37   2.003   1_554  S
O31          C41   1.273       .  A
O32         Cu37   1.986       .  S
O32          C42   1.274       .  A
O33         Cu38   2.030   1_556  S
O33          C42   1.282       .  A
O34         Cu38   2.016       .  S
O34          C41   1.280       .  A
O35         Cu38   2.012   1_545  S
O35          C40   1.276       .  A
O36         Cu38   2.013       .  S
O36          C39   1.276       .  A
Cu37        Cu38   2.369   1_556  S
C39         C607   1.502       .  S
C40         C562   1.505       .  S
C41         C576   1.470       .  S
C42         C593   1.481       .  S
N43          C47   1.363   1_545  A
N43          C44   1.374       .  A
N43         C551   1.460       .  S
C44          C45   1.386   1_545  A
C44         C663   1.497       .  S
C45          C46   1.362       .  A
C45          H48   1.083       .  S
C46          C47   1.374       .  A
C46          H49   1.082       .  S
C47         C579   1.473       .  S
N50          C54   1.353       .  A
N50          C51   1.369       .  A
N50         C565   1.460       .  S
C51          C52   1.388       .  A
C51         C691   1.494       .  S
C52          C53   1.365       .  A
C52          H55   1.083       .  S
C53          C54   1.374       .  A
C53          H56   1.082       .  S
C54         C537   1.464       .  S
O57         Cu65   2.079       .  S
O57          C67   1.287       .  A
O58         Cu65   2.080   1_455  S
O58          C68   1.288       .  A
O59         Cu65   1.976       .  S
O59          C69   1.272       .  A
O60         Cu65   1.990   1_565  S
O60          C70   1.273       .  A
O61         Cu66   2.009   1_565  S
O61          C70   1.280       .  A
O62         Cu66   2.016       .  S
O62          C69   1.278       .  A
O63         Cu66   2.009   1_455  S
O63          C68   1.276       .  A
O64         Cu66   2.010       .  S
O64          C67   1.277       .  A
Cu65        Cu66   2.370       .  S
C67         C520   1.505       .  S
C68         C478   1.509       .  S
C69         C495   1.457       .  S
C70         C509   1.470       .  S
N71          C75   1.363       .  A
N71          C72   1.371       .  A
N71         C464   1.473       .  S
C72          C73   1.387       .  A
C72         C450   1.486   1_655  S
C73          C74   1.361       .  A
C73          H76   1.083       .  S
C74          C75   1.375       .  A
C74          H77   1.082       .  S
C75         C492   1.479       .  S
N78          C82   1.360   1_545  A
N78          C79   1.367       .  A
N78         C481   1.460       .  S
C79          C80   1.381   1_545  A
C79         C618   1.480       .  S
C80          C81   1.361       .  A
C80          H83   1.083       .  S
C81          C82   1.378       .  A
C81          H84   1.083       .  S
C82         C436   1.465       .  S
O85         Cu93   1.955   1_554  S
O85          C95   1.268       .  A
O86         Cu93   1.945       .  S
O86          C96   1.268       .  A
O87         Cu93   2.081   1_565  S
O87          C97   1.288       .  A
O88         Cu93   2.085       .  S
O88          C98   1.289       .  A
O89         Cu94   2.004       .  S
O89          C98   1.275       .  A
O90         Cu94   2.013   1_565  S
O90          C97   1.275       .  A
O91         Cu94   2.037       .  S
O91          C96   1.283       .  A
O92         Cu94   2.029   1_554  S
O92          C95   1.282       .  A
Cu93        Cu94   2.370       .  S
C95         C408   1.460       .  S
C96         C439   1.468   1_545  S
C97         C425   1.500       .  S
C98         C394   1.510       .  S
O99        Cu107   2.027       .  S
O99         C109   1.279       .  A
O100       Cu107   2.024   1_655  S
O100        C110   1.278       .  A
O101       Cu107   2.031   1_565  S
O101        C111   1.282       .  A
O102       Cu107   2.035       .  S
O102        C112   1.282   1_455  A
O103       Cu108   1.968       .  S
O103        C112   1.271   1_455  A
O104       Cu108   1.985   1_565  S
O104        C111   1.273       .  A
O105       Cu108   2.064   1_655  S
O105        C110   1.286       .  A
O106       Cu108   2.071       .  S
O106        C109   1.286       .  A
Cu107      Cu108   2.367       .  S
C109        C352   1.508       .  S
C110        C548   1.507       .  S
C111        C380   1.479   1_455  S
C112        C366   1.473       .  S
O113       Cu121   1.958   1_455  S
O113        C123   1.270       .  A
O114       Cu121   1.961       .  S
O114        C124   1.270       .  A
O115       Cu121   2.072   1_556  S
O115        C125   1.287       .  A
O116       Cu121   2.068       .  S
O116        C126   1.287       .  A
O117       Cu122   2.007       .  S
O117        C126   1.276       .  A
O118       Cu122   2.000   1_556  S
O118        C125   1.274       .  A
O119       Cu122   2.041       .  S
O119        C124   1.283       .  A
O120       Cu122   2.033   1_455  S
O120        C123   1.282       .  A
Cu121      Cu122   2.370       .  S
C123        C324   1.464       .  S
C124        C534   1.468       .  S
C125        C467   1.498       .  S
C126        C341   1.504       .  S
N127        C131   1.360       .  A
N127        C128   1.367       .  A
N127        C338   1.463       .  S
C128        C129   1.385       .  A
C128        C310   1.492       .  S
C129        C130   1.366       .  A
C129        H132   1.083       .  S
C130        C131   1.377       .  A
C130        H133   1.082       .  S
C131        C369   1.469       .  S
N134        C138   1.359   1_545  A
N134        C135   1.371   1_545  A
N134        C355   1.464       .  S
C135        C136   1.388       .  A
C135        C635   1.486   1_565  S
C136        C137   1.359       .  A
C136        H139   1.082       .  S
C137        C138   1.373       .  A
C137        H140   1.083       .  S
C138        C411   1.461       .  S
N141        C145   1.366       .  A
N141        C142   1.372       .  A
N141        C397   1.470   1_554  S
C142        C143   1.382       .  A
C142        C705   1.483   1_554  S
C143        C144   1.355       .  A
C143        H146   1.083       .  S
C144        C145   1.376       .  A
C144        H147   1.083       .  S
C145        C327   1.462       .  S
O148       Cu156   1.980   1_655  S
O148        C158   1.277       .  A
O149       Cu156   1.992       .  S
O149        C159   1.277       .  A
O150       Cu156   2.017       .  S
O150        C160   1.278       .  A
O151       Cu156   2.017   1_556  S
O151        C161   1.278       .  A
O152       Cu157   2.053   1_556  S
O152        C161   1.283       .  A
O153       Cu157   2.045       .  S
O153        C160   1.282       .  A
O154       Cu157   1.988       .  S
O154        C159   1.275       .  A
O155       Cu157   2.003   1_655  S
O155        C158   1.276       .  A
Cu156      Cu157   2.371       .  S
C158        C282   1.472       .  S
C159        C254   1.470       .  S
C160        C268   1.490       .  S
C161        C296   1.498       .  S
N162        C166   1.358       .  A
N162        C163   1.370       .  A
N162        C271   1.456   1_655  S
C163        C164   1.388       .  A
C163        C240   1.493   1_655  S
C164        C165   1.363       .  A
C164        H167   1.083       .  S
C165        C166   1.374       .  A
C165        H168   1.082       .  S
C166        C383   1.469       .  S
N169        C173   1.351       .  A
N169        C170   1.371       .  A
N169        C422   1.456       .  S
C170        C171   1.392       .  A
C170        C730   1.505   1_554  S
C171        C172   1.364       .  A
C171        H174   1.083       .  S
C172        C173   1.372       .  A
C172        H175   1.082       .  S
C173        C257   1.460       .  S
N176        C180   1.360       .  A
N176        C177   1.369       .  A
N176        C299   1.459       .  S
C177        C178   1.387       .  A
C177        C226   1.495   1_655  S
C178        C179   1.362       .  A
C178        H181   1.082       .  S
C179        C180   1.375       .  A
C179        H182   1.083       .  S
C180        C506   1.469       .  S
N183        C187   1.360   1_545  A
N183        C184   1.370       .  A
N183        C523   1.454       .  S
C184        C185   1.386   1_545  A
C184        C649   1.491       .  S
C185        C186   1.363       .  A
C185        H188   1.083       .  S
C186        C187   1.375       .  A
C186        H189   1.082       .  S
C187        C590   1.474       .  S
N190        C194   1.359       .  A
N190        C191   1.369       .  A
N190        C604   1.456       .  S
C191        C192   1.384       .  A
C191        C719   1.484       .  S
C192        C193   1.365       .  A
C192        H195   1.083       .  S
C193        C194   1.377       .  A
C193        H196   1.083       .  S
C194        C285   1.470       .  S
N197        C201   1.363       .  A
N197        C198   1.365       .  A
N197        C212   1.466       .  S
C198        C199   1.389       .  A
C198        C229   1.506       .  S
C199        C200   1.365       .  A
C199        H202   1.081       .  S
C200        C201   1.381       .  A
C200        H203   1.083       .  S
C201        C453   1.485       .  S
N204        C208   1.370       .  A
N204        C205   1.372       .  A
N204        C215   1.477       .  S
C205        C206   1.380       .  A
C205        C243   1.491       .  S
C206        C207   1.360       .  A
C206        H209   1.083       .  S
C207        C208   1.388       .  A
C207        H210   1.082       .  S
C208        C313   1.508       .  S
C211        C212   1.408       .  A
C211        C216   1.421       .  A
C211        H218   1.084   1_455  S
C212        C213   1.417       .  A
C213        N220   1.428       .  S
C213        C214   1.405       .  A
C214        C215   1.416       .  A
C214        H219   1.082       .  S
C215        C216   1.421       .  A
C216        N217   1.426   1_455  S
N217        O221   1.261       .  A
N217        O222   1.262       .  A
N220        O224   1.262       .  A
N220        O223   1.262       .  A
C225        C226   1.407   1_655  A
C225        C230   1.402   1_655  A
C225        H232   1.084       .  S
C226        C227   1.409       .  A
C227        N234   1.427       .  S
C227        C228   1.403       .  A
C228        C229   1.412       .  A
C228        H233   1.082       .  S
C229        C230   1.417       .  A
C230        N231   1.429   1_455  S
N231        O235   1.262       .  A
N231        O236   1.262       .  A
N234        O238   1.261       .  A
N234        O237   1.262       .  A
C239        C240   1.415       .  A
C239        C244   1.402       .  A
C239        H246   1.084   1_455  S
C240        C241   1.405       .  A
C241        N248   1.427       .  S
C241        C242   1.403       .  A
C242        C243   1.413       .  A
C242        H247   1.084       .  S
C243        C244   1.402       .  A
C244        N245   1.428       .  S
N245        O249   1.262       .  A
N245        O250   1.262   1_455  A
N248        O252   1.262   1_455  A
N248        O251   1.262       .  A
C253        C254   1.402   1_556  A
C253        C258   1.393   1_556  A
C253        H260   1.084       .  S
C254        C255   1.415       .  A
C255        N262   1.430       .  S
C255        C256   1.398       .  A
C256        C257   1.396       .  A
C256        H261   1.084       .  S
C257        C258   1.406       .  A
C258        N259   1.432   1_554  S
N259        O263   1.262       .  A
N259        O264   1.262       .  A
N262        O266   1.262       .  A
N262        O265   1.262       .  A
C267        C268   1.404       .  A
C267        C272   1.412       .  A
C267        H274   1.083       .  S
C268        C269   1.411   1_455  A
C269        N276   1.430       .  S
C269        C270   1.404       .  A
C270        C271   1.408   1_655  A
C270        H275   1.083       .  S
C271        C272   1.417       .  A
C272        N273   1.430       .  S
N273        O277   1.262       .  A
N273        O278   1.263       .  A
N276        O280   1.262       .  A
N276        O279   1.262       .  A
C281        C282   1.399   1_556  A
C281        C286   1.390   1_556  A
C281        H288   1.084       .  S
C282        C283   1.414       .  A
C283        N290   1.429       .  S
C283        C284   1.403       .  A
C284        C285   1.402       .  A
C284        H289   1.084       .  S
C285        C286   1.411       .  A
C286        N287   1.431   1_554  S
N287        O291   1.262       .  A
N287        O292   1.262   1_556  A
N290        O294   1.262       .  A
N290        O293   1.262       .  A
C295        C296   1.406   1_655  A
C295        C300   1.406       .  A
C295        H302   1.084       .  S
C296        C297   1.412       .  A
C297        N304   1.428       .  S
C297        C298   1.410       .  A
C298        C299   1.411   1_455  A
C298        H303   1.082       .  S
C299        C300   1.416       .  A
C300        N301   1.428       .  S
N301        O305   1.262       .  A
N301        O306   1.262       .  A
N304        O308   1.262       .  A
N304        O307   1.262       .  A
C309        C310   1.405       .  A
C309        C314   1.407       .  A
C309        H316   1.084       .  S
C310        C311   1.411   1_655  A
C311        N318   1.430       .  S
C311        C312   1.405       .  A
C312        C313   1.410       .  A
C312        H317   1.084       .  S
C313        C314   1.421   1_455  A
C314        N315   1.429       .  S
N315        O319   1.260       .  A
N315        O320   1.261       .  A
N318        O322   1.262       .  A
N318        O321   1.262       .  A
C323        C324   1.406       .  A
C323        C328   1.395       .  A
C323        H330   1.084       .  S
C324        C325   1.404   1_554  A
C325        N332   1.429       .  S
C325        C326   1.399       .  A
C326        C327   1.406   1_556  A
C326        H331   1.084       .  S
C327        C328   1.401       .  A
C328        N329   1.429       .  S
N329        O333   1.262       .  A
N329        O334   1.262       .  A
N332        O336   1.262       .  A
N332        O335   1.262       .  A
C337        C338   1.413   1_455  A
C337        C342   1.411       .  A
C337        H344   1.081       .  S
C338        C339   1.417       .  A
C339        N346   1.429       .  S
C339        C340   1.408       .  A
C340        C341   1.409       .  A
C340        H345   1.084       .  S
C341        C342   1.412   1_655  A
C342        N343   1.428       .  S
N343        O347   1.262       .  A
N343        O348   1.262       .  A
N346        O350   1.262       .  A
N346        O349   1.262       .  A
C351        C352   1.408   1_565  A
C351        C356   1.411       .  A
C351        H358   1.084       .  S
C352        C353   1.413       .  A
C353        N360   1.428       .  S
C353        C354   1.414       .  A
C354        C355   1.412       .  A
C354        H359   1.082       .  S
C355        C356   1.416   1_545  A
C356        N357   1.427       .  S
N357        O361   1.262       .  A
N357        O362   1.262       .  A
N360        O364   1.262       .  A
N360        O363   1.262       .  A
C365        C366   1.409       .  A
C365        C370   1.398       .  A
C365        H372   1.083       .  S
C366        C367   1.405   1_655  A
C367        N374   1.428       .  S
C367        C368   1.398   1_455  A
C368        C369   1.404       .  A
C368        H373   1.083       .  S
C369        C370   1.401       .  A
C370        N371   1.430       .  S
N371        O375   1.262       .  A
N371        O376   1.262       .  A
N374        O378   1.262       .  A
N374        O377   1.262       .  A
C379        C380   1.403   1_455  A
C379        C384   1.401       .  A
C379        H386   1.084       .  S
C380        C381   1.417       .  A
C381        N388   1.429       .  S
C381        C382   1.398       .  A
C382        C383   1.395       .  A
C382        H387   1.084       .  S
C383        C384   1.410   1_655  A
C384        N385   1.430       .  S
N385        O389   1.261       .  A
N385        O390   1.261       .  A
N388        O392   1.262       .  A
N388        O391   1.262       .  A
C393        C394   1.404       .  A
C393        C398   1.418       .  A
C393        H400   1.083       .  S
C394        C395   1.419   1_556  A
C395        N402   1.429       .  S
C395        C396   1.407       .  A
C396        C397   1.408   1_554  A
C396        H401   1.083       .  S
C397        C398   1.427       .  A
C398        N399   1.432       .  S
N399        O403   1.263       .  A
N399        O404   1.262       .  A
N402        O406   1.262       .  A
N402        O405   1.262       .  A
C407        C408   1.398       .  A
C407        C412   1.397       .  A
C407        H414   1.084       .  S
C408        C409   1.411   1_545  A
C409        N416   1.430       .  S
C409        C410   1.395       .  A
C410        C411   1.395       .  A
C410        H415   1.084       .  S
C411        C412   1.411   1_565  A
C412        N413   1.430       .  S
N413        O417   1.262       .  A
N413        O418   1.262       .  A
N416        O420   1.262       .  A
N416        O419   1.262       .  A
C421        C422   1.410   1_556  A
C421        C426   1.417       .  A
C421        H428   1.083       .  S
C422        C423   1.416       .  A
C423        N430   1.429       .  S
C423        C424   1.407       .  A
C424        C425   1.405   1_554  A
C424        H429   1.084       .  S
C425        C426   1.413       .  A
C426        N427   1.429       .  S
N427        O431   1.262       .  A
N427        O432   1.262       .  A
N430        O434   1.262       .  A
N430        O433   1.261       .  A
C435        C436   1.407   1_545  A
C435        C440   1.399       .  A
C435        H442   1.042       .  S
C436        C437   1.399       .  A
C437        N444   1.429       .  S
C437        C438   1.396       .  A
C438        C439   1.410       .  A
C438        H443   1.073       .  S
C439        C440   1.403   1_565  A
C440        N441   1.429       .  S
N441        O445   1.262       .  A
N441        O446   1.262       .  A
N444        O448   1.261       .  A
N444        O447   1.261       .  A
C449        C450   1.408       .  A
C449        C454   1.403       .  A
C449        H456   1.079       .  S
C450        C451   1.408   1_455  A
C451        N458   1.430       .  S
C451        C452   1.400   1_655  A
C452        C453   1.407       .  A
C452        H457   1.082       .  S
C453        C454   1.405       .  A
C454        N455   1.428       .  S
N455        O459   1.262       .  A
N455        O460   1.262       .  A
N458        O462   1.262       .  A
N458        O461   1.262       .  A
C463        C464   1.421       .  A
C463        C468   1.407       .  A
C463        H470   1.077       .  S
C464        C465   1.418   1_655  A
C465        N472   1.428       .  S
C465        C466   1.412       .  A
C466        C467   1.408   1_455  A
C466        H471   1.083       .  S
C467        C468   1.405       .  A
C468        N469   1.429       .  S
N469        O473   1.262       .  A
N469        O474   1.262       .  A
N472        O476   1.262       .  A
N472        O475   1.262       .  A
C477        C478   1.409       .  A
C477        C482   1.419       .  A
C477        H484   1.083       .  S
C478        C479   1.419       .  A
C479        N486   1.430   1_545  S
C479        C480   1.406       .  A
C480        C481   1.406       .  A
C480        H485   1.083   1_545  S
C481        C482   1.418       .  A
C482        N483   1.430       .  S
N483        O487   1.262       .  A
N483        O488   1.262       .  A
N486        O490   1.262       .  A
N486        O489   1.262       .  A
C491        C492   1.403       .  A
C491        C496   1.393       .  A
C491        H498   1.084       .  S
C492        C493   1.413   1_655  A
C493        N500   1.429       .  S
C493        C494   1.400       .  A
C494        C495   1.399   1_455  A
C494        H499   1.084       .  S
C495        C496   1.403       .  A
C496        N497   1.428       .  S
N497        O501   1.261       .  A
N497        O502   1.262       .  A
N500        O504   1.262       .  A
N500        O503   1.262       .  A
C505        C506   1.399       .  A
C505        C510   1.402       .  A
C505        H512   1.084       .  S
C506        C507   1.411   1_655  A
C507        N514   1.431       .  S
C507        C508   1.393       .  A
C508        C509   1.397   1_455  A
C508        H513   1.084       .  S
C509        C510   1.413       .  A
C510        N511   1.428       .  S
N511        O515   1.262       .  A
N511        O516   1.262       .  A
N514        O518   1.262       .  A
N514        O517   1.262       .  A
C519        C520   1.410       .  A
C519        C524   1.419       .  A
C519        H526   1.082       .  S
C520        C521   1.416   1_545  A
C521        N528   1.430       .  S
C521        C522   1.404       .  A
C522        C523   1.404   1_565  A
C522        H527   1.083       .  S
C523        C524   1.415       .  A
C524        N525   1.432       .  S
N525        O529   1.262       .  A
N525        O530   1.262       .  A
N528        O532   1.262       .  A
N528        O531   1.262       .  A
C533        C534   1.407       .  A
C533        C538   1.396       .  A
C533        H540   1.084       .  S
C534        C535   1.406   1_554  A
C535        N542   1.428       .  S
C535        C536   1.400   1_556  A
C536        C537   1.404       .  A
C536        H541   1.084   1_554  S
C537        C538   1.400       .  A
C538        N539   1.429       .  S
N539        O543   1.262       .  A
N539        O544   1.262       .  A
N542        O546   1.262       .  A
N542        O545   1.262       .  A
C547        C548   1.411   1_565  A
C547        C552   1.412       .  A
C547        H554   1.086       .  S
C548        C549   1.414       .  A
C549        N556   1.428       .  S
C549        C550   1.409       .  A
C550        C551   1.409       .  A
C550        H555   1.085       .  S
C551        C552   1.415   1_545  A
C552        N553   1.429       .  S
N553        O557   1.262       .  A
N553        O558   1.262       .  A
N556        O560   1.261       .  A
N556        O559   1.262       .  A
C561        C562   1.406       .  A
C561        C566   1.408       .  A
C561        H568   1.084       .  S
C562        C563   1.414   1_554  A
C563        N570   1.428       .  S
C563        C564   1.419       .  A
C564        C565   1.410   1_556  A
C564        H569   1.083       .  S
C565        C566   1.418       .  A
C566        N567   1.429       .  S
N567        O571   1.261       .  A
N567        O572   1.262       .  A
N570        O574   1.262       .  A
N570        O573   1.262       .  A
C575        C576   1.398   1_545  A
C575        C580   1.396       .  A
C575        H582   1.084       .  S
C576        C577   1.412       .  A
C577        N584   1.431       .  S
C577        C578   1.404       .  A
C578        C579   1.402       .  A
C578        H583   1.084       .  S
C579        C580   1.410   1_565  A
C580        N581   1.430       .  S
N581        O585   1.262       .  A
N581        O586   1.262       .  A
N584        O588   1.262       .  A
N584        O587   1.262       .  A
C589        C590   1.398       .  A
C589        C594   1.404       .  A
C589        H596   1.084       .  S
C590        C591   1.410   1_565  A
C591        N598   1.431       .  S
C591        C592   1.400       .  A
C592        C593   1.402   1_545  A
C592        H597   1.084       .  S
C593        C594   1.418       .  A
C594        N595   1.433       .  S
N595        O599   1.263       .  A
N595        O600   1.262       .  A
N598        O602   1.262       .  A
N598        O601   1.262       .  A
C603        C604   1.404       .  A
C603        C608   1.406       .  A
C603        H610   1.083       .  S
C604        C605   1.418   1_554  A
C605        N612   1.429       .  S
C605        C606   1.415       .  A
C606        C607   1.406   1_556  A
C606        H611   1.083       .  S
C607        C608   1.416       .  A
C608        N609   1.429       .  S
N609        O613   1.262       .  A
N609        O614   1.262       .  A
N612        O616   1.262       .  A
N612        O615   1.261       .  A
C617        C618   1.393       .  A
C617        C622   1.403       .  A
C617        H624   1.084       .  S
C618        C619   1.415       .  A
C619        N626   1.427       .  S
C619        C620   1.406       .  A
C620        C621   1.400       .  A
C620        H625   1.084       .  S
C621        C622   1.426       .  A
C622        N623   1.431       .  S
N623        O627   1.262       .  A
N623        O628   1.262       .  A
N626        O630   1.261       .  A
N626        O629   1.262       .  A
C631        C632   1.404       .  A
C631        C636   1.404       .  A
C631        H638   1.083       .  S
C632        C633   1.421       .  A
C633        N640   1.433       .  S
C633        C634   1.406       .  A
C634        C635   1.402       .  A
C634        H639   1.084       .  S
C635        C636   1.420       .  A
C636        N637   1.439   1_545  S
N637        O641   1.263       .  A
N637        O642   1.262       .  A
N640        O644   1.262       .  A
N640        O643   1.263       .  A
C645        C646   1.415       .  A
C645        C650   1.405       .  A
C645        H652   1.084       .  S
C646        C647   1.407       .  A
C647        N654   1.430       .  S
C647        C648   1.407       .  A
C648        C649   1.413       .  A
C648        H653   1.084       .  S
C649        C650   1.403       .  A
C650        N651   1.428       .  S
N651        O655   1.262   1_545  A
N651        O656   1.262       .  A
N654        O658   1.262       .  A
N654        O657   1.262       .  A
C659        C660   1.412       .  A
C659        C664   1.410       .  A
C659        H666   1.083       .  S
C660        C661   1.416       .  A
C661        N668   1.430       .  S
C661        C662   1.407       .  A
C662        C663   1.409       .  A
C662        H667   1.084   1_545  S
C663        C664   1.410       .  A
C664        N665   1.429       .  S
N665        O669   1.262       .  A
N665        O670   1.262       .  A
N668        O672   1.262   1_545  A
N668        O671   1.262   1_545  A
C673        C674   1.414       .  A
C673        C678   1.425       .  A
C673        H680   1.082       .  S
C674        C675   1.428       .  A
C675        N682   1.429       .  S
C675        C676   1.410       .  A
C676        C677   1.413       .  A
C676        H681   1.083       .  S
C677        C678   1.420       .  A
C678        N679   1.432       .  S
N679        O683   1.262       .  A
N679        O684   1.262       .  A
N682        O686   1.262       .  A
N682        O685   1.262       .  A
C687        C688   1.415       .  A
C687        C692   1.407       .  A
C687        H694   1.083       .  S
C688        C689   1.403       .  A
C689        N696   1.428       .  S
C689        C690   1.409       .  A
C690        C691   1.416   1_556  A
C690        H695   1.084       .  S
C691        C692   1.404   1_554  A
C692        N693   1.430   1_556  S
N693        O697   1.262       .  A
N693        O698   1.262   1_554  A
N696        O700   1.262       .  A
N696        O699   1.262       .  A
C701        C702   1.410       .  A
C701        C706   1.406       .  A
C701        H708   1.084       .  S
C702        C703   1.415       .  A
C703        N710   1.429   1_556  S
C703        C704   1.401   1_556  A
C704        C705   1.404   1_554  A
C704        H709   1.084       .  S
C705        C706   1.408       .  A
C706        N707   1.427       .  S
N707        O711   1.262       .  A
N707        O712   1.261       .  A
N710        O714   1.262       .  A
N710        O713   1.261       .  A
C715        C716   1.400       .  A
C715        C720   1.402       .  A
C715        H722   1.084       .  S
C716        C717   1.419       .  A
C717        N724   1.430   1_556  S
C717        C718   1.409   1_556  A
C718        C719   1.401       .  A
C718        H723   1.084       .  S
C719        C720   1.412   1_554  A
C720        N721   1.427       .  S
N721        O725   1.262       .  A
N721        O726   1.260       .  A
N724        O728   1.262   1_554  A
N724        O727   1.261       .  A
C729        C730   1.420       .  A
C729        C734   1.405       .  A
C729        H736   1.083   1_556  S
C730        C731   1.404       .  A
C731        N738   1.427       .  S
C731        C732   1.406       .  A
C732        C733   1.417       .  A
C732        H737   1.082       .  S
C733        C734   1.403       .  A
C734        N735   1.430       .  S
N735        O739   1.262       .  A
N735        O740   1.262   1_556  A
N738        O742   1.262       .  A
N738        O741   1.261       .  A
C743        C744   1.408       .  A
C743        C748   1.406       .  A
C743        H750   1.082       .  S
C744        C745   1.415       .  A
C745        N752   1.427   1_556  S
C745        C746   1.425       .  A
C746        C747   1.414       .  A
C746        H751   1.082   1_556  S
C747        C748   1.424       .  A
C748        N749   1.428       .  S
N749        O753   1.262       .  A
N749        O754   1.262       .  A
N752        O756   1.261       .  A
N752        O755   1.262       .  A
