geometry optimzed in LAMMPS
_audit_creation_date              2020-11-30 
_audit_creation_method            'lammps2cif' 
_symmetry_space_group_name_H-M    'P1' 
_symmetry_Int_Tables_number       1 
_symmetry_cell_setting            triclinic 
loop_ 
_symmetry_equiv_pos_as_xyz 
  x,y,z 
_cell_length_a                    40.31262635 
_cell_length_b                    40.36587909204134 
_cell_length_c                    38.367244148976596 
_cell_angle_alpha                 89.6105330990568 
_cell_angle_beta                  90.60093886506968 
_cell_angle_gamma                 120.16681679878229 
loop_ 
_atom_site_label 
_atom_site_type_symbol 
_atom_site_fract_x 
_atom_site_fract_y 
_atom_site_fract_z 
_atom_site_charge 
In1        In  0.58792038  0.59796834  0.35378452     1.36900
C2          C  0.56498281  0.63059018  0.40031379     0.79400
O3          O  0.52943006  0.57620798  0.33087326    -0.59000
O4          O  0.55159456  0.53832081  0.33346714    -0.49900
C5          C  0.61961868  0.62971297  0.29324107     0.72100
O6          O  0.60373867  0.64300963  0.31216248    -0.44800
C7          C  0.62525540  0.57424301  0.39551795     0.76800
O8          O  0.59622205  0.64972794  0.38414781    -0.56600
O9          O  0.59043796  0.55398404  0.38714988    -0.46700
O10         O  0.54675707  0.59548256  0.39307411    -0.53100
C11         C  0.52351832  0.54283872  0.32623932     0.87000
O12         O  0.62309632  0.60321833  0.30709444    -0.55000
O13         O  0.64184215  0.60741658  0.38222354    -0.58300
In14       In  0.37722814  0.38828295  0.35602117     1.36900
C15         C  0.41018390  0.36782873  0.40543721     0.79400
O16         O  0.43309887  0.40914370  0.32845542    -0.59000
O17         O  0.41404321  0.44864693  0.33816120    -0.49900
C18         C  0.34029582  0.35584430  0.29712589     0.72100
O19         O  0.35785961  0.34262406  0.31451048    -0.44800
C20         C  0.33407596  0.40320667  0.39736822     0.76800
O21         O  0.38370301  0.34302916  0.38618615    -0.56600
O22         O  0.36372089  0.42869960  0.38238462    -0.46700
O23         O  0.41854713  0.40179225  0.39961206    -0.53100
C24         C  0.44028180  0.44328316  0.32696087     0.87000
O25         O  0.33812834  0.38242570  0.31183733    -0.55000
O26         O  0.32495973  0.36916139  0.38991658    -0.58300
In27       In  0.59727636  0.58294247  0.13864938     1.36900
C28         C  0.63058212  0.56002524  0.09276393     0.79400
O29         O  0.57171433  0.52296871  0.15934608    -0.59000
O30         O  0.53699616  0.54872296  0.15772192    -0.49900
C31         C  0.63009693  0.61373701  0.19953937     0.72100
O32         O  0.63981831  0.59408618  0.18164518    -0.44800
C33         C  0.57506291  0.62256998  0.09844740     0.76800
O34         O  0.64968086  0.59058502  0.10995904    -0.56600
O35         O  0.55325401  0.58848750  0.10789289    -0.46700
O36         O  0.59502607  0.54289481  0.09805281    -0.53100
C37         C  0.53910103  0.51913535  0.16391697     0.87000
O38         O  0.60614986  0.62068174  0.18486693    -0.55000
O39         O  0.60926311  0.63704060  0.10935211    -0.58300
In40       In  0.37693269  0.37527735  0.14094789     1.36900
C41         C  0.33863983  0.39719546  0.09861361     0.79400
O42         O  0.40335098  0.43550265  0.16092317    -0.59000
O43         O  0.43845048  0.41034756  0.15760545    -0.49900
C44         C  0.35171990  0.34269681  0.20303406     0.72100
O45         O  0.33836119  0.36112287  0.18745400    -0.44800
C46         C  0.39414970  0.33578616  0.09659595     0.76800
O47         O  0.32138676  0.36873566  0.11878050    -0.56600
O48         O  0.41618923  0.37058430  0.10366921    -0.46700
O49         O  0.37461152  0.41282079  0.09951173    -0.53100
C50         C  0.43635517  0.43977134  0.16420558     0.87000
O51         O  0.37530171  0.33806471  0.18554872    -0.55000
O52         O  0.36240530  0.32048044  0.11227374    -0.58300
C53         C  0.28226449  0.78599464  0.99780258     0.88300
C54         C  0.29130212  0.81314739  0.02880474    -0.51900
C55         C  0.32777678  0.84395852  0.02824031     0.11300
C56         C  0.35158679  0.84421660  0.99722729     0.22200
C57         C  0.28346086  0.81034309  0.46485083    -0.52600
C58         C  0.31909869  0.84201947  0.46218931     0.11400
C59         C  0.31356042  0.77471254  0.99881721    -0.52200
C60         C  0.34994322  0.80550198  0.99854812     0.11900
H61         H  0.27069525  0.80844646  0.04898276     0.16400
H62         H  0.38126779  0.86921927  0.99695569     0.02200
H63         H  0.26130990  0.80217275  0.44498913     0.16800
H64         H  0.30749631  0.74528541  0.99983963     0.16500
C65         C  0.49320391  0.78683737  0.50288283     0.88300
C66         C  0.51198137  0.81190858  0.47069203    -0.51900
C67         C  0.50779219  0.84342188  0.46918546     0.11300
C68         C  0.48537773  0.84681595  0.49968576     0.22200
C69         C  0.51965859  0.81843522  0.03558564    -0.52600
C70         C  0.51286202  0.84846015  0.03487385     0.11400
C71         C  0.45111207  0.77732392  0.50173353    -0.52200
C72         C  0.44722142  0.80894070  0.50010138     0.11900
H73         H  0.52681702  0.80527164  0.45089200     0.16400
H74         H  0.48207100  0.87253222  0.49822901     0.02200
H75         H  0.53518777  0.81383550  0.05656978     0.16800
H76         H  0.42673728  0.74831694  0.50216919     0.16500
C77         C  0.50137241  0.68859675  0.00482357     0.88300
C78         C  0.51853671  0.67865995  0.03651842    -0.51900
C79         C  0.51140464  0.64170761  0.03605330     0.11300
C80         C  0.48769245  0.61842970  0.00442125     0.22200
C81         C  0.50786387  0.67557394  0.47130486    -0.52600
C82         C  0.50275971  0.63940718  0.47073092     0.11400
C83         C  0.45837050  0.65827438  0.00469523    -0.52200
C84         C  0.45126469  0.62152588  0.00451212     0.11900
H85         H  0.53495394  0.69889013  0.05703527     0.16400
H86         H  0.48182648  0.58841039  0.00431433     0.02200
H87         H  0.52285015  0.69676954  0.45111200     0.16800
H88         H  0.43564602  0.66529658  0.00487945     0.16500
C89         C  0.27181330  0.46749689  0.50402043     0.88300
C90         C  0.27891512  0.45231948  0.46986620    -0.51900
C91         C  0.31521540  0.45791845  0.46776826     0.11300
C92         C  0.34058449  0.47774687  0.49966422     0.22200
C93         C  0.28699731  0.45538542  0.03428166    -0.52600
C94         C  0.32275842  0.45953696  0.03153590     0.11400
C95         C  0.30381867  0.50988865  0.50600130    -0.52200
C96         C  0.33985309  0.51503503  0.50369487     0.11900
H97         H  0.25766432  0.43912305  0.44919267     0.16400
H98         H  0.37005291  0.48219419  0.49765807     0.02200
H99         H  0.26698817  0.43903340  0.05480812     0.16800
H100        H  0.29842244  0.53353733  0.50874124     0.16500
C101        C  0.17626687  0.68520152  0.50575226     0.88300
C102        C  0.14914834  0.67688799  0.47453866    -0.51900
C103        C  0.11668465  0.64175937  0.47624020     0.11300
C104        C  0.11433309  0.61863658  0.50905818     0.22200
C105        C  0.15092580  0.68610162  0.03397581    -0.52600
C106        C  0.11753840  0.65176511  0.03690268     0.11400
C107        C  0.18403369  0.65161211  0.50709346    -0.52200
C108        C  0.15141514  0.61664901  0.50871791     0.11900
H109        H  0.15566915  0.69637188  0.45266481     0.16400
H110        H  0.08828626  0.58986887  0.50952436     0.02200
H111        H  0.15931040  0.70948613  0.05225661     0.16800
H112        H  0.21255907  0.65513528  0.50615321     0.16500
C113        C  0.17475686  0.47526146  0.01047385     0.88300
C114        C  0.14948638  0.45662150  0.04258980    -0.51900
C115        C  0.11741672  0.46006253  0.04274607     0.14900
C116        C  0.11356713  0.48127316  0.01109315     0.22200
C117        C  0.14093377  0.44645316  0.47745758    -0.52600
C118        C  0.10948247  0.45098555  0.47771876     0.11400
C119        C  0.18312647  0.51702048  0.01019577    -0.52200
C120        C  0.15078214  0.51987157  0.01052636     0.11900
H121        H  0.15659872  0.44283643  0.06340630     0.16400
H122        H  0.08735275  0.48382337  0.01135115     0.02200
H123        H  0.14610006  0.43077983  0.45740883     0.16800
H124        H  0.21185056  0.54186269  0.00969476     0.16500
In125      In  0.59179708  0.97746515  0.36018128     1.36900
C126        C  0.63025110  0.04177339  0.39703172     0.79400
O127        O  0.55377102  0.98662632  0.32194394    -0.59000
O128        O  0.53526786  0.96907940  0.37392445    -0.49900
C129        C  0.61728764  0.96856604  0.29955311     0.72100
O130        O  0.62743817  0.00107371  0.31222210    -0.44800
C131        C  0.57196011  0.91879943  0.40303589     0.76800
O132        O  0.64616638  0.02331856  0.38731339    -0.56600
O133        O  0.54882125  0.92198385  0.38304907    -0.46700
O134        O  0.59628109  0.02810064  0.38672245    -0.53100
C135        C  0.52830521  0.97852739  0.34459621     0.87000
O136        O  0.59667699  0.94073914  0.31919211    -0.55000
O137        O  0.60662360  0.94476641  0.39976112    -0.58300
In138      In  0.37313045  0.98352466  0.36311917     1.36900
C139        C  0.32971129  0.91843433  0.39724231     0.79400
O140        O  0.42069261  0.98065182  0.33523214    -0.59000
O141        O  0.42210287  0.98459269  0.39062531    -0.49900
C142        C  0.35305522  0.99239664  0.29896993     0.72100
O143        O  0.33935016  0.96000807  0.31330160    -0.44800
C144        C  0.39213436  0.04444136  0.40188721     0.76800
O145        O  0.32102836  0.94448149  0.39587331    -0.56600
O146        O  0.41564372  0.03965354  0.38449918    -0.46700
O147        O  0.35770241  0.92445599  0.37870776    -0.53100
C148        C  0.43779124  0.98195686  0.36343949     0.87000
O149        O  0.37438310  0.02010212  0.31833165    -0.55000
O150        O  0.35741556  0.01847857  0.39826217    -0.58300
In151      In  0.59415288  0.98656387  0.14441776     1.36900
C152        C  0.62791516  0.04292910  0.09840098     0.79400
O153        O  0.60465892  0.94251405  0.11792012    -0.59000
O154        O  0.55135409  0.94001124  0.11005251    -0.49900
C155        C  0.62794578  0.98938158  0.20488678     0.72100
O156        O  0.63921029  0.01816298  0.18537406    -0.44800
C157        C  0.53663078  0.99231979  0.17014190     0.76800
O158        O  0.64654250  0.03014238  0.11468075    -0.56600
O159        O  0.53434033  0.96052565  0.16433223    -0.46700
O160        O  0.59263510  0.02595163  0.10494759    -0.53100
C161        C  0.57200791  0.92570751  0.10338394     0.87000
O162        O  0.60169549  0.95847782  0.19207909    -0.55000
O163        O  0.56921307  0.02116186  0.16511085    -0.58300
In164      In  0.37617106  0.97462272  0.14265335     1.36900
C165        C  0.34116067  0.91843210  0.09677954     0.79400
O166        O  0.36214863  0.01671866  0.11604334    -0.59000
O167        O  0.41682071  0.02242640  0.10876311    -0.49900
C168        C  0.34432522  0.97152158  0.20351616     0.72100
O169        O  0.33262299  0.94277717  0.18403930    -0.44800
C170        C  0.43437583  0.96882656  0.16818197     0.76800
O171        O  0.32261221  0.92834192  0.11626053    -0.56600
O172        O  0.43608420  0.00063297  0.16388740    -0.46700
O173        O  0.37707869  0.93821703  0.10002249    -0.53100
C174        C  0.39456970  0.03494621  0.10170214     0.87000
O175        O  0.37005093  0.00254436  0.19051894    -0.55000
O176        O  0.40235144  0.94001647  0.16107630    -0.58300
C177        C  0.78962200  0.48626623  0.99851868     0.88300
C178        C  0.81262389  0.50406519  0.03231616    -0.51900
C179        C  0.84613639  0.50327316  0.03416163     0.11300
C180        C  0.85352348  0.48516206  0.00234592     0.22200
C181        C  0.81075590  0.51490366  0.46392384    -0.52600
C182        C  0.84332789  0.51246029  0.46297121     0.11400
C183        C  0.78436064  0.44571592  0.99701346    -0.52200
C184        C  0.81797216  0.44529021  0.99902221     0.11900
H185        H  0.80296168  0.51531570  0.05304280     0.16400
H186        H  0.88078536  0.48459582  0.00412584     0.02200
H187        H  0.80433220  0.53083682  0.44471751     0.16800
H188        H  0.75656340  0.41975057  0.99477959     0.16500
C189        C  0.78493556  0.27904064  0.49760011     0.88300
C190        C  0.81413020  0.28788751  0.46855624    -0.51900
C191        C  0.84639052  0.32316353  0.47178015     0.11300
C192        C  0.84618248  0.34602422  0.50358108     0.22200
C193        C  0.81178954  0.27851011  0.03190408    -0.52600
C194        C  0.84659727  0.31142475  0.03257155     0.11400
C195        C  0.77667316  0.31232226  0.49677259    -0.52200
C196        C  0.80886124  0.34757669  0.49969978     0.11900
H197        H  0.80947027  0.26826613  0.44737601     0.16400
H198        H  0.87207560  0.37484564  0.50534733     0.02200
H199        H  0.80238286  0.25698564  0.05237109     0.16800
H200        H  0.74812204  0.30838092  0.49338614     0.16500
C201        C  0.46036554  0.26965055  0.99710344     0.88300
C202        C  0.44357163  0.28031002  0.02798648    -0.51900
C203        C  0.44896359  0.31655263  0.02554503     0.11300
C204        C  0.47060739  0.33840492  0.99264857     0.22200
C205        C  0.44775039  0.28313551  0.46759791    -0.52600
C206        C  0.44929300  0.31767375  0.46528314     0.11400
C207        C  0.50276498  0.30112860  0.99559025    -0.52200
C208        C  0.50822664  0.33720294  0.99325970     0.11900
H209        H  0.42917847  0.26116086  0.04970107     0.16400
H210        H  0.47582138  0.36807722  0.99131249     0.02200
H211        H  0.43221243  0.26017492  0.44892086     0.16800
H212        H  0.52635541  0.29538041  0.99657260     0.16500
C213        C  0.68231617  0.49588398  0.49483100     0.88300
C214        C  0.67498019  0.51540442  0.46335359    -0.51900
C215        C  0.63923366  0.51165302  0.46347892     0.11300
C216        C  0.61464488  0.48897191  0.49472042     0.22200
C217        C  0.67563196  0.49878802  0.02606549    -0.52600
C218        C  0.64028041  0.49581523  0.02519654     0.11400
C219        C  0.64909353  0.45406873  0.49411156    -0.52200
C220        C  0.61367671  0.45058614  0.49406953     0.11900
H221        H  0.69577973  0.53028669  0.44293694     0.16400
H222        H  0.58564336  0.48590667  0.49469851     0.02200
H223        H  0.69634561  0.51294031  0.04696271     0.16800
H224        H  0.65325704  0.42949045  0.49374968     0.16500
C225        C  0.68123675  0.17578711  0.99966449     0.88300
C226        C  0.67391409  0.14966417  0.03141051    -0.51900
C227        C  0.63807342  0.11787743  0.03117281     0.11300
C228        C  0.61319078  0.11565795  0.99976292     0.22200
C229        C  0.67662818  0.14892310  0.46323044    -0.52600
C230        C  0.64100335  0.11689359  0.46341079     0.11400
C231        C  0.64877870  0.18524346  0.99969988    -0.52200
C232        C  0.61314034  0.15358688  0.99976385     0.11900
H233        H  0.69503345  0.15561143  0.05182963     0.16400
H234        H  0.58400386  0.08987967  0.99981833     0.02200
H235        H  0.69733858  0.15537351  0.44267808     0.16800
H236        H  0.65355318  0.21423778  0.99975351     0.16500
C237        C  0.47110153  0.17818199  0.50012301     0.88300
C238        C  0.45249597  0.15420474  0.46726014    -0.51900
C239        C  0.45633089  0.12256096  0.46548345     0.11300
C240        C  0.47810319  0.11785647  0.49626441     0.22200
C241        C  0.44368249  0.14138069  0.03205638    -0.52600
C242        C  0.45052696  0.11142979  0.03225043     0.11400
C243        C  0.51308045  0.18722031  0.49985732    -0.52200
C244        C  0.51643242  0.15531332  0.49785330     0.11900
H245        H  0.43809197  0.16164454  0.44724089     0.16400
H246        H  0.48105256  0.09196217  0.49451196     0.02200
H247        H  0.42825178  0.14623099  0.05256275     0.16800
H248        H  0.53769938  0.21604235  0.50111201     0.16500
In249      In  0.98896044  0.58413887  0.35861222     1.36900
C250        C  0.93658564  0.55578756  0.40901633     0.79400
O251        O  0.95115395  0.52662874  0.33425567    -0.59000
O252        O  0.01079975  0.54673500  0.33855183    -0.49900
C253        C  0.99635252  0.62318653  0.30016434     0.72100
O254        O  0.96522638  0.60674219  0.31685177    -0.44800
C255        C  0.04720656  0.62571474  0.40100028     0.76800
O256        O  0.93508593  0.57662006  0.38488861    -0.56600
O257        O  0.04052990  0.59425547  0.38816943    -0.46700
O258        O  0.96475003  0.55060308  0.40738919    -0.53100
C259        C  0.97799033  0.51968195  0.33027132     0.87000
O260        O  0.02401399  0.62276500  0.31518947    -0.55000
O261        O  0.02513535  0.63759595  0.39048999    -0.58300
In262      In  0.97929640  0.36989411  0.36018505     1.36900
C263        C  0.92164168  0.33566664  0.40454551     0.79400
O264        O  0.02619547  0.36233370  0.38603604    -0.59000
O265        O  0.01870056  0.40858893  0.40115502    -0.49900
C266        C  0.96601952  0.33192213  0.30053947     0.72100
O267        O  0.93976708  0.33123806  0.31848175    -0.44800
C268        C  0.99104766  0.43477297  0.33179801     0.76800
O269        O  0.93738065  0.31829712  0.39161832    -0.56600
O270        O  0.01729917  0.42665828  0.33460336    -0.46700
O271        O  0.93556261  0.36992128  0.39478376    -0.53100
C272        C  0.03740027  0.39156932  0.40511778     0.87000
O273        O  0.99876560  0.34863277  0.31488907    -0.55000
O274        O  0.95844525  0.40876003  0.34156259    -0.58300
In275      In  0.97746297  0.58262329  0.14794920     1.36900
C276        C  0.03005159  0.60282469  0.09841227     0.79400
O277        O  0.01494171  0.56392200  0.17483166    -0.59000
O278        O  0.95518058  0.52422278  0.17014830    -0.49900
C279        C  0.97201799  0.61482542  0.20620488     0.72100
O280        O  0.00320778  0.62818227  0.18980265    -0.44800
C281        C  0.91809937  0.56289306  0.10558182     0.76800
O282        O  0.02849804  0.62789342  0.11701366    -0.56600
O283        O  0.92425625  0.53910143  0.12158503    -0.46700
O284        O  0.00477219  0.56886513  0.10496088    -0.53100
C285        C  0.98780665  0.53025344  0.17960370     0.87000
O286        O  0.94333818  0.58878678  0.19043526    -0.55000
O287        O  0.94158392  0.59769670  0.11255035    -0.58300
In288      In  0.98163242  0.37944697  0.14941543     1.36900
C289        C  0.93260612  0.36036099  0.09623235     0.79400
O290        O  0.94438082  0.39901244  0.17409425    -0.59000
O291        O  0.00462841  0.43723723  0.17332685    -0.49900
C292        C  0.98530220  0.34329764  0.20613674     0.72100
O293        O  0.95380857  0.33352973  0.19080861    -0.44800
C294        C  0.04211523  0.39957848  0.11023955     0.76800
O295        O  0.93182459  0.33516661  0.11669291    -0.56600
O296        O  0.03570635  0.42331351  0.12561706    -0.46700
O297        O  0.95818683  0.39412447  0.10304129    -0.53100
C298        C  0.97191956  0.43205387  0.18054510     0.87000
O299        O  0.01448579  0.36814997  0.19032989    -0.55000
O300        O  0.01820574  0.36467541  0.11625543    -0.58300
C301        C  0.99458538  0.49946046  0.19107391    -0.14600
C302        C  0.96557123  0.46315858  0.19127192    -0.29800
H303        H  0.02409240  0.50558213  0.19132929     0.14400
H304        H  0.93610265  0.45715210  0.19105351     0.15000
C305        C  0.95917643  0.31897562  0.26395418    -0.14600
C306        C  0.98860851  0.33142261  0.24181233    -0.29800
H307        H  0.93038804  0.30850972  0.25367195     0.14400
H308        H  0.01752947  0.34312977  0.25221464     0.15000
C309        C  0.96923212  0.62400157  0.24288653    -0.14600
C310        C  0.00000712  0.63753372  0.26406959    -0.29800
H311        H  0.94075178  0.60956362  0.25420274     0.14400
H312        H  0.02840040  0.65033870  0.25268047     0.15000
C313        C  0.97059935  0.48139230  0.32087106    -0.14600
C314        C  0.99892556  0.47318101  0.32182359    -0.29800
H315        H  0.94085995  0.45838746  0.32032209     0.14400
H316        H  0.02869405  0.49610790  0.32211143     0.15000
C317        C  0.54789717  0.15455035  0.00040367    -0.11400
C318        C  0.57824324  0.15536526  0.00007003    -0.13000
C319        C  0.46783411  0.21271267  0.50184078    -0.11400
C320        C  0.45523902  0.23097497  0.99921487    -0.13000
C321        C  0.54627012  0.37117825  0.99257370    -0.11400
C322        C  0.57820896  0.41400040  0.49372949    -0.13000
C323        C  0.87417409  0.31878211  0.06167665    -0.14600
C324        C  0.90626826  0.35253972  0.06648594    -0.29800
H325        H  0.86721283  0.29585985  0.08033865     0.14400
H326        H  0.91303658  0.37640320  0.04922378     0.15000
C327        C  0.88922815  0.31758757  0.42889125    -0.14600
C328        C  0.87888556  0.33917042  0.44726236    -0.29800
H329        H  0.87426338  0.28668196  0.43209342     0.14400
H330        H  0.89593285  0.37020644  0.44553509     0.15000
C331        C  0.71941933  0.21006604  0.99953957    -0.11400
C332        C  0.75064107  0.24089158  0.49495934    -0.13000
C333        C  0.88686085  0.55046671  0.07951795    -0.14600
C334        C  0.87272823  0.51601279  0.06428965    -0.29800
H335        H  0.87802516  0.57046274  0.07055250     0.14400
H336        H  0.88466925  0.49796622  0.07125694     0.15000
C337        C  0.87271097  0.53284815  0.43546199    -0.14600
C338        C  0.90821406  0.53786453  0.43719041    -0.29800
H339        H  0.86483817  0.54423118  0.41313161     0.14400
H340        H  0.91679453  0.52692254  0.45924425     0.15000
C341        C  0.75265245  0.48585561  0.99646731    -0.11400
C342        C  0.72025582  0.49850191  0.49517678    -0.13000
C343        C  0.82004789  0.41036567  0.99876089    -0.11400
C344        C  0.80801724  0.38321376  0.49696658    -0.13000
C345        C  0.40582975  0.06783332  0.07794348    -0.14600
C346        C  0.43841603  0.08169307  0.05959479    -0.29800
H347        H  0.38664629  0.07912859  0.07408471     0.14400
H348        H  0.45587065  0.06827704  0.06238920     0.15000
C349        C  0.46781039  0.96518261  0.17727521    -0.14600
C350        C  0.50313098  0.99596931  0.17821664    -0.29800
H351        H  0.46407811  0.93658299  0.17674159     0.14400
H352        H  0.50694186  0.02460742  0.17824341     0.15000
C353        C  0.64552727  0.07550541  0.07399372    -0.14600
C354        C  0.62349009  0.08696977  0.05737707    -0.29800
H355        H  0.67619583  0.08966914  0.06936762     0.14400
H356        H  0.59260364  0.07117275  0.06103581     0.15000
C357        C  0.34876608  0.99783810  0.26164020    -0.14600
C358        C  0.33199747  0.96786428  0.23993790    -0.29800
H359        H  0.36618956  0.02659675  0.25121279     0.14400
H360        H  0.31482493  0.93906692  0.25033894     0.15000
C361        C  0.40532486  0.07693517  0.42593359    -0.14600
C362        C  0.44206242  0.09497812  0.43674574    -0.29800
H363        H  0.38477362  0.08358009  0.43728317     0.14400
H364        H  0.46136364  0.08546266  0.42768441     0.15000
C365        C  0.64098172  0.99295231  0.24129191    -0.14600
C366        C  0.62420614  0.96298713  0.26310598    -0.29800
H367        H  0.65760028  0.02180093  0.25169553     0.14400
H368        H  0.60768536  0.93411836  0.25272733     0.15000
C369        C  0.47272392  0.97967850  0.36588926    -0.14600
C370        C  0.49359740  0.98098159  0.33841761    -0.29800
H371        H  0.48178824  0.97715872  0.39208755     0.14400
H372        H  0.48587950  0.98493241  0.31214270     0.15000
C373        C  0.64854811  0.07569728  0.41981106    -0.14600
C374        C  0.62639139  0.08639392  0.43684791    -0.29800
H375        H  0.67926509  0.08995012  0.42456424     0.14400
H376        H  0.59539827  0.06971135  0.43375611     0.15000
C377        C  0.08908932  0.44683829  0.07093078    -0.14600
C378        C  0.07421660  0.41216245  0.08587118    -0.29800
H379        H  0.07701952  0.46493195  0.07675674     0.14400
H380        H  0.08330816  0.39219848  0.07789933     0.15000
C381        C  0.07798985  0.43497785  0.45147986    -0.14600
C382        C  0.06983875  0.40541200  0.43008515    -0.29800
H383        H  0.05968825  0.44759359  0.45085161     0.14400
H384        H  0.08650464  0.39107228  0.43113363     0.15000
C385        C  0.08943473  0.64506807  0.06500519    -0.14600
C386        C  0.05842241  0.61067684  0.07088084    -0.29800
H387        H  0.09459197  0.66907783  0.08140503     0.14400
H388        H  0.05362656  0.58608260  0.05578053     0.15000
C389        C  0.08750325  0.62513341  0.44825452    -0.14600
C390        C  0.07750914  0.64568307  0.42744395    -0.29800
H391        H  0.07225542  0.59410476  0.44593407     0.14400
H392        H  0.08974836  0.67627456  0.43129597     0.15000
C393        C  0.15082406  0.55577828  0.01011708    -0.11400
C394        C  0.15148290  0.58073221  0.50808599    -0.13000
C395        C  0.23312768  0.46262013  0.50640883    -0.11400
C396        C  0.20982839  0.47249567  0.00971733    -0.13000
C397        C  0.37469682  0.55213441  0.50415700    -0.11400
C398        C  0.41286761  0.58827067  0.00482962    -0.13000
C399        C  0.55890638  0.89232377  0.08002731    -0.14600
C400        C  0.52612047  0.87908524  0.06149710    -0.29800
H401        H  0.57709576  0.87987490  0.07674899     0.14400
H402        H  0.50958879  0.89350773  0.06359878     0.15000
C403        C  0.52249155  0.87188369  0.44088675    -0.14600
C404        C  0.55859310  0.88790415  0.42907119    -0.29800
H405        H  0.50395051  0.88259722  0.43189538     0.14400
H406        H  0.57868971  0.88028166  0.44037565     0.15000
C407        C  0.50798579  0.72809224  0.00486009    -0.11400
C408        C  0.49665683  0.75233112  0.50430248    -0.13000
C409        C  0.32259043  0.88579609  0.07262231    -0.14600
C410        C  0.34390638  0.87568946  0.05362861    -0.29800
H411        H  0.29150851  0.87015852  0.07053543     0.14400
H412        H  0.37501409  0.89270773  0.05521351     0.15000
C413        C  0.33174752  0.86941941  0.43290794    -0.14600
C414        C  0.31119147  0.88502610  0.42073972    -0.29800
H415        H  0.36129578  0.88115604  0.42470536     0.14400
H416        H  0.28319509  0.87651899  0.43146099     0.15000
C417        C  0.24295964  0.75315024  0.99825691    -0.11400
C418        C  0.21110364  0.72283530  0.50374822    -0.13000
C419        C  0.41517003  0.80426296  0.00100416    -0.11400
C420        C  0.38442020  0.80275016  0.99986252    -0.13000
C421        C  0.40513384  0.31506804  0.07193824    -0.14600
C422        C  0.43604217  0.33456271  0.05149980    -0.29800
H423        H  0.38745930  0.28413702  0.06999130     0.14400
H424        H  0.45175579  0.36567755  0.05230005     0.15000
C425        C  0.31886307  0.41195610  0.07618492    -0.14600
C426        C  0.33931762  0.44226825  0.05514564    -0.29800
H427        H  0.28782134  0.39807656  0.07708488     0.14400
H428        H  0.37023836  0.45464003  0.05395647     0.15000
C429        C  0.50548158  0.48187456  0.17214904    -0.14600
C430        C  0.47015073  0.47725000  0.17166959    -0.29800
H431        H  0.50922843  0.45702650  0.17263666     0.14400
H432        H  0.46639059  0.50209058  0.17103775     0.15000
C433        C  0.52578213  0.62455160  0.06200774    -0.14600
C434        C  0.56123956  0.64329063  0.07617917    -0.29800
H435        H  0.50775605  0.59397533  0.06656156     0.14400
H436        H  0.58063357  0.67325566  0.07006107     0.15000
C437        C  0.64804163  0.54475856  0.06879297    -0.14600
C438        C  0.62572800  0.51211654  0.05119758    -0.29800
H439        H  0.67892119  0.56040813  0.06531281     0.14400
H440        H  0.59475334  0.49793703  0.05380051     0.15000
C441        C  0.32768686  0.34551874  0.26064856    -0.14600
C442        C  0.34451434  0.33154030  0.24009991    -0.29800
H443        H  0.31257288  0.35873738  0.24880217     0.14400
H444        H  0.36095574  0.31968364  0.25181398     0.15000
C445        C  0.43080197  0.35950186  0.43286424    -0.14600
C446        C  0.42784661  0.32517867  0.43741792    -0.29800
H447        H  0.45021172  0.38359048  0.44890598     0.14400
H448        H  0.40922398  0.30179916  0.42009978     0.15000
C449        C  0.31315072  0.41294446  0.42286902    -0.14600
C450        C  0.33072796  0.44783360  0.43762917    -0.29800
H451        H  0.28523511  0.39081327  0.43195079     0.14400
H452        H  0.36008188  0.46844957  0.43054865     0.15000
C453        C  0.64202908  0.62307302  0.23622331    -0.14600
C454        C  0.62817231  0.64038657  0.25626475    -0.29800
H455        H  0.65537008  0.60822410  0.24836499     0.14400
H456        H  0.61516612  0.65560691  0.24423276     0.15000
C457        C  0.48529007  0.51105310  0.31730022    -0.14600
C458        C  0.47811545  0.47488156  0.31694835    -0.29800
H459        H  0.46166785  0.51675656  0.31797415     0.14400
H460        H  0.50162759  0.46903048  0.31600742     0.15000
C461        C  0.51839501  0.62491907  0.44391295    -0.14600
C462        C  0.55031480  0.64748527  0.42551854    -0.29800
H463        H  0.50426123  0.59400103  0.44098560     0.14400
H464        H  0.56612705  0.67828042  0.42941973     0.15000
C465        C  0.64444626  0.55998087  0.41935906    -0.14600
C466        C  0.62358377  0.52674014  0.43662756    -0.29800
H467        H  0.67512051  0.57743336  0.42397203     0.14400
H468        H  0.59259917  0.51102422  0.43326104     0.15000
In469      In  0.59336116  0.59124867  0.85968664     1.36900
C470        C  0.57269147  0.62755790  0.90503204     0.79400
O471        O  0.53591599  0.57294504  0.83493327    -0.59000
O472        O  0.55300656  0.53146561  0.84199276    -0.49900
C473        C  0.63017157  0.61711509  0.79960721     0.72100
O474        O  0.63321891  0.59315199  0.81834257    -0.44800
C475        C  0.62868667  0.56528258  0.90095199     0.76800
O476        O  0.60246787  0.64540693  0.88661513    -0.56600
O477        O  0.59490295  0.54485025  0.88964413    -0.46700
O478        O  0.55516715  0.59178960  0.90112909    -0.53100
C479        C  0.52706477  0.53837702  0.83255365     0.87000
O480        O  0.61161940  0.63111552  0.81326608    -0.55000
O481        O  0.64485236  0.60004991  0.89165311    -0.58300
In482      In  0.37471058  0.38702530  0.85878876     1.36900
C483        C  0.40239286  0.36218580  0.90952575     0.79400
O484        O  0.43225682  0.40634613  0.83509582    -0.59000
O485        O  0.41375713  0.44681519  0.83993917    -0.49900
C486        C  0.33773423  0.35497229  0.79964783     0.72100
O487        O  0.35547256  0.34184261  0.81680650    -0.44800
C488        C  0.33374476  0.40658685  0.89817194     0.76800
O489        O  0.38021288  0.33975383  0.88616355    -0.56600
O490        O  0.36488097  0.43039988  0.88400847    -0.46700
O491        O  0.40842432  0.39581888  0.90753960    -0.53100
C492        C  0.44030502  0.44057979  0.83179910     0.87000
O493        O  0.33515690  0.38110686  0.81477031    -0.55000
O494        O  0.32195533  0.37183039  0.89079861    -0.58300
In495      In  0.59071966  0.58868983  0.64410504     1.36900
C496        C  0.62726122  0.56875712  0.59899104     0.79400
O497        O  0.56753984  0.52885417  0.66439738    -0.59000
O498        O  0.53066368  0.55217940  0.66340538    -0.49900
C499        C  0.61960093  0.62474805  0.70415680     0.72100
O500        O  0.62992804  0.60293967  0.69080603    -0.44800
C501        C  0.56736287  0.62449499  0.60076296     0.76800
O502        O  0.64533624  0.59751339  0.61865579    -0.56600
O503        O  0.54580909  0.59110391  0.61210784    -0.46700
O504        O  0.59140517  0.55162534  0.60219247    -0.53100
C505        C  0.53428806  0.52336264  0.66906170     0.87000
O506        O  0.59728772  0.63059024  0.68541143    -0.55000
O507        O  0.60159356  0.64031300  0.61180094    -0.58300
In508      In  0.37588715  0.37513115  0.64374229     1.36900
C509        C  0.33650147  0.39379496  0.59942456     0.79400
O510        O  0.39947650  0.43470202  0.66463150    -0.59000
O511        O  0.43703107  0.41240525  0.66063082    -0.49900
C512        C  0.34989059  0.34222976  0.70552541     0.72100
O513        O  0.33704552  0.36108681  0.68993826    -0.44800
C514        C  0.39647337  0.33767993  0.60036068     0.76800
O515        O  0.31997257  0.36505257  0.61934535    -0.56600
O516        O  0.41804182  0.37210091  0.60905409    -0.46700
O517        O  0.37253292  0.41165416  0.60170532    -0.53100
C518        C  0.43312306  0.44063487  0.66796260     0.87000
O519        O  0.37329371  0.33722800  0.68811975    -0.55000
O520        O  0.36377609  0.32155643  0.61435726    -0.58300
C521        C  0.27807655  0.78782905  0.49876850     0.88300
C522        C  0.28738482  0.81710429  0.52801185    -0.51900
C523        C  0.32305591  0.84895603  0.52502916     0.11300
C524        C  0.34573736  0.84793832  0.49340647     0.22200
C525        C  0.29088755  0.81153026  0.96544020    -0.52600
C526        C  0.32738100  0.84225909  0.96538309     0.11400
C527        C  0.31074481  0.77873794  0.49978138    -0.52200
C528        C  0.34619551  0.81027393  0.49701570     0.11900
H529        H  0.26768790  0.81276738  0.54894021     0.16400
H530        H  0.37477365  0.87365526  0.49100099     0.02200
H531        H  0.27003950  0.80606973  0.94488348     0.16800
H532        H  0.30622405  0.74994927  0.50261949     0.16500
C533        C  0.50299909  0.79189385  0.00371987     0.88300
C534        C  0.52053610  0.81862394  0.97200163    -0.51900
C535        C  0.51365846  0.84864459  0.97161733     0.11300
C536        C  0.48991294  0.84870076  0.00271312     0.22200
C537        C  0.51151846  0.81404043  0.53403613    -0.52600
C538        C  0.50737696  0.84565547  0.53214035     0.11400
C539        C  0.46012789  0.77943593  0.00278223    -0.52200
C540        C  0.45336176  0.80923280  0.00224115     0.11900
H541        H  0.53651444  0.81401532  0.95188341     0.16400
H542        H  0.48416893  0.87291593  0.00233632     0.02200
H543        H  0.52612682  0.80877389  0.55542918     0.16800
H544        H  0.43720527  0.74968302  0.00247580     0.16500
C545        C  0.49087288  0.68344517  0.50368358     0.88300
C546        C  0.50955343  0.67452891  0.53466889    -0.51900
C547        C  0.50416253  0.63826093  0.53370872     0.11300
C548        C  0.48052454  0.61458135  0.50218591     0.22200
C549        C  0.51814552  0.67919219  0.97303436    -0.52600
C550        C  0.51127201  0.64230786  0.97306685     0.11400
C551        C  0.44842131  0.65183924  0.50404453    -0.52200
C552        C  0.44304244  0.61574365  0.50328912     0.11900
H553        H  0.52541506  0.69487859  0.55527724     0.16400
H554        H  0.47610437  0.58509403  0.50159367     0.02200
H555        H  0.53434828  0.69992609  0.95286764     0.16800
H556        H  0.42480954  0.65752889  0.50496007     0.16500
C557        C  0.27800505  0.47631769  0.00532756     0.88300
C558        C  0.28419711  0.46051215  0.97110600    -0.51900
C559        C  0.32004118  0.46495061  0.96873664     0.11300
C560        C  0.34590911  0.48447710  0.00049809     0.22200
C561        C  0.28142852  0.44714534  0.53308390    -0.52600
C562        C  0.31769318  0.45248929  0.53059771     0.11400
C563        C  0.31082449  0.51832415  0.00713999    -0.52200
C564        C  0.34641814  0.52244656  0.00457867     0.11900
H565        H  0.26257338  0.44746004  0.95071148     0.16400
H566        H  0.37501001  0.48803028  0.99833238     0.02200
H567        H  0.26158845  0.43055281  0.55363761     0.16800
H568        H  0.30626472  0.54249958  0.00999371     0.16500
C569        C  0.17484258  0.68891797  0.00207142     0.88300
C570        C  0.14753641  0.67993512  0.97077061    -0.51900
C571        C  0.11436342  0.64532746  0.97355427     0.11300
C572        C  0.11189319  0.62328718  0.00727589     0.22200
C573        C  0.15205580  0.68036427  0.53787306    -0.52600
C574        C  0.11913271  0.64562485  0.53973558     0.11400
C575        C  0.18143525  0.65482054  0.00504487    -0.52200
C576        C  0.14859162  0.62045387  0.00770102     0.11900
H577        H  0.15416655  0.69876996  0.94838076     0.16400
H578        H  0.08536371  0.59493531  0.00846918     0.02200
H579        H  0.15970142  0.70292253  0.55692685     0.16800
H580        H  0.20968724  0.65759404  0.00466319     0.16500
C581        C  0.16847890  0.46601039  0.50828036     0.88300
C582        C  0.14349902  0.44928563  0.54093186    -0.51900
C583        C  0.11225265  0.45415983  0.54097236     0.14900
C584        C  0.10905096  0.47500843  0.50857315     0.22200
C585        C  0.14797062  0.45605822  0.97912504    -0.52600
C586        C  0.11581725  0.45928539  0.97961646     0.11400
C587        C  0.17860066  0.50818151  0.50675307    -0.52200
C588        C  0.14739365  0.51282893  0.50700677     0.11900
H589        H  0.15019949  0.43557805  0.56211517     0.16400
H590        H  0.08366358  0.47894378  0.50877915     0.02200
H591        H  0.15427533  0.44209499  0.95822473     0.16800
H592        H  0.20783501  0.53217187  0.50599604     0.16500
In593      In  0.59179410  0.98401841  0.85804556     1.36900
C594        C  0.62625210  0.04205514  0.90238676     0.79400
O595        O  0.56724148  0.01876284  0.83647621    -0.59000
O596        O  0.53170370  0.95820549  0.83692240    -0.49900
C597        C  0.62573752  0.98773200  0.79798982     0.72100
O598        O  0.63898038  0.01518688  0.81917315    -0.44800
C599        C  0.57053217  0.92373142  0.90050612     0.76800
O600        O  0.64449052  0.02829572  0.88754344    -0.56600
O601        O  0.55100417  0.93971435  0.89533120    -0.46700
O602        O  0.59095700  0.02520405  0.89535521    -0.53100
C603        C  0.53453634  0.99029633  0.83086141     0.87000
O604        O  0.59738768  0.95722645  0.80903248    -0.55000
O605        O  0.60160883  0.93858214  0.88384020    -0.58300
In606      In  0.37597891  0.97697845  0.85483957     1.36900
C607        C  0.34054922  0.91867046  0.89867061     0.79400
O608        O  0.40002449  0.94200570  0.83363916    -0.59000
O609        O  0.43668250  0.00234075  0.83677589    -0.49900
C610        C  0.34379156  0.97540141  0.79388303     0.72100
O611        O  0.32972823  0.94729979  0.81445967    -0.44800
C612        C  0.39576158  0.03669995  0.89694433     0.76800
O613        O  0.32302010  0.93352571  0.88382952    -0.56600
O614        O  0.41557413  0.02089140  0.89312066    -0.46700
O615        O  0.37569974  0.93450679  0.89180248    -0.53100
C616        C  0.43325895  0.97021821  0.82988914     0.87000
O617        O  0.37232673  0.00530131  0.80577725    -0.55000
O618        O  0.36521031  0.02195266  0.87908608    -0.58300
In619      In  0.59223728  0.98290147  0.64068025     1.36900
C620        C  0.62921251  0.04151114  0.59644316     0.79400
O621        O  0.60407529  0.94227788  0.60977983    -0.59000
O622        O  0.54864665  0.93632631  0.60748861    -0.49900
C623        C  0.61630805  0.97135881  0.70201260     0.72100
O624        O  0.63005602  0.00437632  0.68885711    -0.44800
C625        C  0.53554763  0.99133441  0.66476313     0.76800
O626        O  0.64715542  0.03025416  0.61590311    -0.56600
O627        O  0.53113678  0.95933808  0.65603312    -0.46700
O628        O  0.59332982  0.02215911  0.59921579    -0.53100
C629        C  0.57019668  0.92399634  0.59779344     0.87000
O630        O  0.59358695  0.94457639  0.68238835    -0.55000
O631        O  0.56957483  0.01878929  0.66337722    -0.58300
In632      In  0.37796760  0.98251697  0.63827336     1.36900
C633        C  0.33961164  0.92387464  0.59495392     0.79400
O634        O  0.36336326  0.02156233  0.60739012    -0.59000
O635        O  0.41942282  0.02918748  0.60441408    -0.49900
C636        C  0.35477470  0.99439727  0.69879439     0.72100
O637        O  0.34002632  0.96151243  0.68534460    -0.44800
C638        C  0.43476342  0.97363287  0.66293703     0.76800
O639        O  0.32242072  0.93428889  0.61567428    -0.56600
O640        O  0.43940192  0.00562857  0.65352414    -0.46700
O641        O  0.37561711  0.94401735  0.59607011    -0.53100
C642        C  0.39671720  0.04044014  0.59490382     0.87000
O643        O  0.37850212  0.02120586  0.67986604    -0.55000
O644        O  0.40061122  0.94640832  0.66158941    -0.58300
C645        C  0.78487854  0.49442451  0.49509372     0.88300
C646        C  0.81108539  0.51158049  0.52731268    -0.51900
C647        C  0.84320238  0.50819633  0.52638221     0.11300
C648        C  0.84621411  0.48850684  0.49343151     0.22200
C649        C  0.81780278  0.50878873  0.96897597    -0.52600
C650        C  0.85152456  0.50829499  0.97118932     0.11400
C651        C  0.77643300  0.45276686  0.49310487    -0.52200
C652        C  0.80864845  0.44967097  0.49249479     0.11900
H653        H  0.80432030  0.52407956  0.54915124     0.16400
H654        H  0.87192577  0.48525792  0.49338809     0.02200
H655        H  0.81143691  0.52325626  0.94826352     0.16800
H656        H  0.74763811  0.42801350  0.49330504     0.16500
C657        C  0.78755811  0.27439918  0.99956357     0.88300
C658        C  0.81294543  0.27805105  0.96867665    -0.51900
C659        C  0.84763968  0.31114039  0.96869973     0.11300
C660        C  0.85351107  0.33747371  0.00025494     0.22200
C661        C  0.80714334  0.28394358  0.53145474    -0.52600
C662        C  0.83971004  0.31870116  0.53469700     0.11400
C663        C  0.78424325  0.31056667  0.99862828    -0.52200
C664        C  0.81871989  0.34372252  0.99904302     0.11900
H665        H  0.80432454  0.25628850  0.94863347     0.16400
H666        H  0.88132889  0.36455637  0.00035966     0.02200
H667        H  0.79880293  0.26108848  0.55049146     0.16800
H668        H  0.75700310  0.30999864  0.99789079     0.16500
C669        C  0.46885683  0.27935617  0.49947767     0.88300
C670        C  0.45108456  0.28795361  0.53085398    -0.51900
C671        C  0.45323767  0.32279526  0.52861553     0.11300
C672        C  0.47269373  0.34539693  0.49534982     0.22200
C673        C  0.44162111  0.27584077  0.96468218    -0.52600
C674        C  0.44616491  0.31166706  0.96243100     0.11400
C675        C  0.51004762  0.31331642  0.49711933    -0.52200
C676        C  0.51202562  0.34795127  0.49500171     0.11900
H677        H  0.43873860  0.26872031  0.55293087     0.16400
H678        H  0.47498661  0.37389398  0.49470043     0.02200
H679        H  0.42481113  0.25334224  0.94595135     0.16800
H680        H  0.53533227  0.31025705  0.49750821     0.16500
C681        C  0.68319165  0.48049250  0.99433032     0.88300
C682        C  0.67660451  0.50024176  0.96265760    -0.51900
C683        C  0.64111249  0.49697439  0.96230207     0.11300
C684        C  0.61586976  0.47454187  0.99321836     0.22200
C685        C  0.67495452  0.51390580  0.52689579    -0.52600
C686        C  0.63935145  0.51039306  0.52660680     0.11400
C687        C  0.64943740  0.43870442  0.99347734    -0.52200
C688        C  0.61413946  0.43581255  0.99292599     0.11900
H689        H  0.69784505  0.51530771  0.94260140     0.16400
H690        H  0.58713972  0.47212106  0.99273010     0.02200
H691        H  0.69582523  0.52790200  0.54769807     0.16800
H692        H  0.65317115  0.41386456  0.99346206     0.16500
C693        C  0.68436917  0.17459479  0.49514244     0.88300
C694        C  0.67736901  0.14812885  0.52675678    -0.51900
C695        C  0.64158241  0.11603391  0.52650376     0.11300
C696        C  0.61660246  0.11401934  0.49508234     0.22200
C697        C  0.67325611  0.14967459  0.96799557    -0.52600
C698        C  0.63742989  0.11788554  0.96831575     0.11400
C699        C  0.65164630  0.18352634  0.49555564    -0.52200
C700        C  0.61619860  0.15183492  0.49560361     0.11900
H701        H  0.69855136  0.15424492  0.54713983     0.16400
H702        H  0.58749048  0.08814587  0.49493347     0.02200
H703        H  0.69400066  0.15559499  0.94759816     0.16800
H704        H  0.65614558  0.21243126  0.49591094     0.16500
C705        C  0.46069818  0.16772800  0.00013650     0.88300
C706        C  0.44344232  0.14102153  0.96841250    -0.51900
C707        C  0.45026784  0.11100029  0.96898348     0.11300
C708        C  0.47354664  0.11088921  0.00085919     0.22200
C709        C  0.45220894  0.15011599  0.53060073    -0.52600
C710        C  0.45606169  0.11839486  0.52833662     0.11400
C711        C  0.50356356  0.18012945  0.00034356    -0.52200
C712        C  0.51007371  0.15017091  0.00068252     0.11900
H713        H  0.42788187  0.14574370  0.94754746     0.16400
H714        H  0.47922134  0.08662647  0.00123151     0.02200
H715        H  0.43782931  0.15509607  0.55198890     0.16800
H716        H  0.52658449  0.20984149  0.00006612     0.16500
In717      In  0.98268976  0.59402372  0.85683053     1.36900
C718        C  0.92478768  0.57185967  0.90152633     0.79400
O719        O  0.94773748  0.53443191  0.83566896    -0.59000
O720        O  0.00827321  0.55940557  0.83791937    -0.49900
C721        C  0.98867607  0.62760381  0.79515087     0.72100
O722        O  0.95675060  0.60614092  0.80935224    -0.44800
C723        C  0.04165992  0.63061727  0.90083327     0.76800
O724        O  0.93607961  0.60153743  0.88287181    -0.56600
O725        O  0.02818213  0.59622859  0.89187936    -0.46700
O726        O  0.94362801  0.55508103  0.89760708    -0.53100
C727        C  0.97626479  0.53019764  0.83121485     0.87000
O728        O  0.01725980  0.63521293  0.81413243    -0.55000
O729        O  0.02513828  0.64704975  0.88693330    -0.58300
In730      In  0.98997592  0.38695454  0.86018565     1.36900
C731        C  0.93340307  0.36406055  0.90637691     0.79400
O732        O  0.02420170  0.36919112  0.89520286    -0.59000
O733        O  0.03872777  0.42756987  0.89285682    -0.49900
C734        C  0.99078792  0.35199658  0.80170650     0.72100
O735        O  0.95994327  0.34696350  0.81471874    -0.44800
C736        C  0.99752452  0.45002376  0.83138225     0.76800
O737        O  0.93948002  0.34010864  0.89069996    -0.56600
O738        O  0.02593016  0.44626007  0.83891575    -0.46700
O739        O  0.95532997  0.39829004  0.89775642    -0.53100
C740        C  0.04541575  0.40298338  0.90622425     0.87000
O741        O  0.02007229  0.37129269  0.82040347    -0.55000
O742        O  0.96523071  0.42031390  0.83569076    -0.58300
In743      In  0.97366751  0.57891317  0.64354869     1.36900
C744        C  0.02752219  0.59791644  0.59568609     0.79400
O745        O  0.00925405  0.55987697  0.67311288    -0.59000
O746        O  0.94943530  0.52090690  0.66755940    -0.49900
C747        C  0.96661787  0.61233703  0.70008044     0.72100
O748        O  0.99818752  0.62588362  0.68422827    -0.44800
C749        C  0.91674110  0.56249850  0.59897023     0.76800
O750        O  0.02796049  0.62283072  0.61596685    -0.56600
O751        O  0.92234882  0.53744306  0.61319769    -0.46700
O752        O  0.99980618  0.56452980  0.59988694    -0.53100
C753        C  0.98153446  0.52674204  0.67855599     0.87000
O754        O  0.93849156  0.58533288  0.68452605    -0.55000
O755        O  0.93974555  0.59659361  0.60847988    -0.58300
In756      In  0.97577395  0.37805897  0.64877586     1.36900
C757        C  0.92789904  0.36317665  0.59562823     0.79400
O758        O  0.93784018  0.39704216  0.67244555    -0.59000
O759        O  0.99823952  0.43472419  0.67477759    -0.49900
C760        C  0.96970506  0.33931057  0.70664823     0.72100
O761        O  0.94198717  0.32879143  0.68557345    -0.44800
C762        C  0.03743603  0.39689928  0.61079447     0.76800
O763        O  0.92686403  0.33653129  0.61413802    -0.56600
O764        O  0.03105932  0.42108995  0.62522914    -0.46700
O765        O  0.95370179  0.39639776  0.60386468    -0.53100
C766        C  0.96520318  0.42944877  0.68084107     0.87000
O767        O  0.00144198  0.36569612  0.69546999    -0.55000
O768        O  0.01326890  0.36226606  0.61761698    -0.58300
C769        C  0.98739593  0.49623458  0.69253327    -0.14600
C770        C  0.95839870  0.46002537  0.69216246    -0.29800
H771        H  0.01682735  0.50221262  0.69418557     0.14400
H772        H  0.92897953  0.45411226  0.69065894     0.15000
C773        C  0.99412641  0.34143529  0.76567893    -0.14600
C774        C  0.96421673  0.32654132  0.74338840    -0.29800
H775        H  0.02305954  0.35454669  0.75540030     0.14400
H776        H  0.93517371  0.31301557  0.75342404     0.15000
C777        C  0.96267210  0.62259806  0.73605883    -0.14600
C778        C  0.99293024  0.63870658  0.75793089    -0.29800
H779        H  0.93391695  0.60779650  0.74679171     0.14400
H780        H  0.02176323  0.65250419  0.74740558     0.15000
C781        C  0.97182279  0.49280106  0.82250775    -0.14600
C782        C  0.00211286  0.48754419  0.82255376    -0.29800
H783        H  0.94289869  0.46823659  0.82244801     0.14400
H784        H  0.03102527  0.51211996  0.82311007     0.15000
C785        C  0.55260593  0.15600021  0.49719581    -0.11400
C786        C  0.58157977  0.15414669  0.49645477    -0.13000
C787        C  0.45497898  0.20093638  0.99983119    -0.11400
C788        C  0.46721500  0.24226239  0.50156681    -0.13000
C789        C  0.54813329  0.38389225  0.49393828    -0.11400
C790        C  0.57780791  0.39979132  0.99251556    -0.13000
C791        C  0.86711849  0.32539451  0.56365501    -0.14600
C792        C  0.90134863  0.35728462  0.56666111    -0.29800
H793        H  0.85903931  0.30279184  0.58292882     0.14400
H794        H  0.90991703  0.38086103  0.54859685     0.15000
C795        C  0.90404400  0.35466766  0.93329148    -0.14600
C796        C  0.87657200  0.31897134  0.94125894    -0.29800
H797        H  0.90483150  0.37879142  0.94637305     0.14400
H798        H  0.87435008  0.29501420  0.92654936     0.15000
C799        C  0.72186616  0.20987298  0.49479817    -0.11400
C800        C  0.75032002  0.23890902  0.99937706    -0.13000
C801        C  0.88609451  0.55239530  0.57266763    -0.14600
C802        C  0.87169397  0.51928047  0.55498640    -0.29800
H803        H  0.87704643  0.57291128  0.56627508     0.14400
H804        H  0.88358043  0.50070146  0.55951895     0.15000
C805        C  0.88381894  0.52662883  0.94631154    -0.14600
C806        C  0.89181283  0.55686899  0.92564453    -0.29800
H807        H  0.90295604  0.51500260  0.94615403     0.14400
H808        H  0.87434400  0.57032613  0.92634597     0.15000
C809        C  0.74988449  0.49761229  0.49560772    -0.11400
C810        C  0.72154143  0.48379835  0.99519855    -0.13000
C811        C  0.80772284  0.41310747  0.49437783    -0.11400
C812        C  0.82113135  0.38087493  0.99879918    -0.13000
C813        C  0.40879025  0.07315958  0.57100724    -0.14600
C814        C  0.44225065  0.08726382  0.55419968    -0.29800
H815        H  0.38998784  0.08478703  0.56636113     0.14400
H816        H  0.45932645  0.07346426  0.55735420     0.15000
C817        C  0.46697017  0.96761809  0.67133596    -0.14600
C818        C  0.50314831  0.99708094  0.67222432    -0.29800
H819        H  0.46139423  0.93833613  0.67128897     0.14400
H820        H  0.50869338  0.02634465  0.67269686     0.15000
C821        C  0.64801917  0.07480297  0.57247139    -0.14600
C822        C  0.62649355  0.08484373  0.55284967    -0.29800
H823        H  0.67907519  0.09050080  0.57057857     0.14400
H824        H  0.59543286  0.06765524  0.55434049     0.15000
C825        C  0.33087436  0.97179740  0.75744136    -0.14600
C826        C  0.34923293  0.00112775  0.73525522    -0.29800
H827        H  0.31234267  0.94301847  0.74751465     0.14400
H828        H  0.36780335  0.02984612  0.74532131     0.15000
C829        C  0.40744116  0.06949507  0.92074432    -0.14600
C830        C  0.43783789  0.08069830  0.94217301    -0.29800
H831        H  0.39023919  0.08324143  0.92166239     0.14400
H832        H  0.45331573  0.06510941  0.94186986     0.15000
C833        C  0.62160055  0.96406502  0.73873304    -0.14600
C834        C  0.63915123  0.99275360  0.76171608    -0.29800
H835        H  0.60345317  0.93497663  0.74815460     0.14400
H836        H  0.65732195  0.02190528  0.75249068     0.15000
C837        C  0.46592602  0.96511231  0.82189006    -0.14600
C838        C  0.50171794  0.99503573  0.82181499    -0.29800
H839        H  0.46108187  0.93608142  0.82235839     0.14400
H840        H  0.50648449  0.02403867  0.82157496     0.15000
C841        C  0.64427849  0.07537437  0.92591622    -0.14600
C842        C  0.62244467  0.08681094  0.94233400    -0.29800
H843        H  0.67506592  0.08981609  0.93040255     0.14400
H844        H  0.59146775  0.07064435  0.93894404     0.15000
C845        C  0.08398982  0.44224211  0.56941573    -0.14600
C846        C  0.06963222  0.40859893  0.58643077    -0.29800
H847        H  0.07157751  0.46030590  0.57382062     0.14400
H848        H  0.07900154  0.38845355  0.57998133     0.15000
C849        C  0.08634364  0.44557419  0.95192476    -0.14600
C850        C  0.07532308  0.41366570  0.93315225    -0.29800
H851        H  0.07170389  0.46176867  0.94816373     0.14400
H852        H  0.08711434  0.39515063  0.93841291     0.15000
C853        C  0.09063347  0.63768595  0.56763775    -0.14600
C854        C  0.05619969  0.60570334  0.56860159    -0.29800
H855        H  0.09795862  0.65929829  0.58763050     0.14400
H856        H  0.04833322  0.58337328  0.54943785     0.15000
C857        C  0.08354552  0.62873223  0.94670020    -0.14600
C858        C  0.07396973  0.64966001  0.92586025    -0.29800
H859        H  0.06647840  0.59766813  0.94570925     0.14400
H860        H  0.08876139  0.68063449  0.92824078     0.15000
C861        C  0.15020273  0.55010884  0.50730317    -0.11400
C862        C  0.14910554  0.58485232  0.00938232    -0.13000
C863        C  0.23984204  0.47262940  0.00804240    -0.11400
C864        C  0.20289146  0.46207484  0.50778748    -0.13000
C865        C  0.38181916  0.55916533  0.00497465    -0.11400
C866        C  0.40537511  0.58159874  0.50389872    -0.13000
C867        C  0.55637720  0.89082198  0.57421778    -0.14600
C868        C  0.52211910  0.87672077  0.55815545    -0.29800
H869        H  0.57473862  0.87892057  0.56902987     0.14400
H870        H  0.50534410  0.89069707  0.56176454     0.15000
C871        C  0.52693059  0.87925662  0.94471031    -0.14600
C872        C  0.55793430  0.89062667  0.92445301    -0.29800
H873        H  0.51159197  0.89497008  0.94338531     0.14400
H874        H  0.57498839  0.87675201  0.92645995     0.15000
C875        C  0.49592215  0.72208064  0.50442612    -0.11400
C876        C  0.50871165  0.75847876  0.00440145    -0.13000
C877        C  0.31968653  0.89045591  0.57158743    -0.14600
C878        C  0.33988419  0.88206289  0.54915790    -0.29800
H879        H  0.28868211  0.87288899  0.57296500     0.14400
H880        H  0.37072499  0.90109461  0.54748208     0.15000
C881        C  0.34299467  0.87283196  0.93884572    -0.14600
C882        C  0.32188256  0.88535176  0.92215291    -0.29800
H883        H  0.37392810  0.88796228  0.93550592     0.14400
H884        H  0.29124467  0.87200104  0.92662812     0.15000
C885        C  0.24045615  0.75314317  0.50170920    -0.11400
C886        C  0.21125969  0.72528679  0.99940636    -0.13000
C887        C  0.41057064  0.80737791  0.49889028    -0.11400
C888        C  0.38102493  0.80823876  0.49793693    -0.13000
C889        C  0.40876830  0.31839876  0.57538707    -0.14600
C890        C  0.43995850  0.33922830  0.55567839    -0.29800
H891        H  0.39143898  0.28757820  0.57204519     0.14400
H892        H  0.45524934  0.37028050  0.55762827     0.15000
C893        C  0.31572451  0.40640211  0.57583932    -0.14600
C894        C  0.33533755  0.43690220  0.55484453    -0.29800
H895        H  0.28458730  0.39086463  0.57593684     0.14400
H896        H  0.36645204  0.45092442  0.55436292     0.15000
C897        C  0.50169540  0.48514858  0.67667110    -0.14600
C898        C  0.46566135  0.47869264  0.67635079    -0.29800
H899        H  0.50687478  0.46120538  0.67638418     0.14400
H900        H  0.46042331  0.50259906  0.67651873     0.15000
C901        C  0.51949832  0.62220036  0.55972897    -0.14600
C902        C  0.55327798  0.64310944  0.57636615    -0.29800
H903        H  0.50341394  0.59132040  0.56336743     0.14400
H904        H  0.57116555  0.67354344  0.57109431     0.15000
C905        C  0.64593274  0.55546864  0.57426276    -0.14600
C906        C  0.62423090  0.52527505  0.55350066    -0.29800
H907        H  0.67701081  0.57064032  0.57271918     0.14400
H908        H  0.59317776  0.51173718  0.55458677     0.15000
C909        C  0.32556687  0.34515240  0.76300061    -0.14600
C910        C  0.34231802  0.33098909  0.74254299    -0.29800
H911        H  0.31080213  0.35869945  0.75109184     0.14400
H912        H  0.35836620  0.31874713  0.75434387     0.15000
C913        C  0.42103890  0.35156729  0.93710441    -0.14600
C914        C  0.42591861  0.32114379  0.93491703    -0.29800
H915        H  0.43258363  0.37090429  0.95907282     0.14400
H916        H  0.41387756  0.30201498  0.91271328     0.15000
C917        C  0.31422258  0.41887804  0.92293160    -0.14600
C918        C  0.33441557  0.45300554  0.93890805    -0.29800
H919        H  0.28497427  0.39879575  0.93069661     0.14400
H920        H  0.36469520  0.47112971  0.93307208     0.15000
C921        C  0.62844607  0.63861158  0.74034058    -0.14600
C922        C  0.64277239  0.62355920  0.76306698    -0.29800
H923        H  0.61463831  0.65390009  0.74996763     0.14400
H924        H  0.65561541  0.60733874  0.75346869     0.15000
C925        C  0.48811510  0.50802946  0.82334035    -0.14600
C926        C  0.47911643  0.47124622  0.82316437    -0.29800
H927        H  0.46560087  0.51535372  0.82306214     0.14400
H928        H  0.50168756  0.46399853  0.82320764     0.15000
C929        C  0.52628461  0.62592917  0.94724271    -0.14600
C930        C  0.55875300  0.64662761  0.92885622    -0.29800
H931        H  0.51104408  0.59488806  0.94521517     0.14400
H932        H  0.57535413  0.67756083  0.93148792     0.15000
C933        C  0.64725145  0.54937386  0.92353345    -0.14600
C934        C  0.62674059  0.51331858  0.93566017    -0.29800
H935        H  0.67690349  0.56766844  0.93167542     0.14400
H936        H  0.59641366  0.49633656  0.92914727     0.15000
loop_ 
_geom_bond_atom_site_label_1 
_geom_bond_atom_site_label_2 
_geom_bond_distance 
_geom_bond_site_symmetry_2 
_ccdc_geom_bond_type 
In1           O3   2.234       .  S
In1           O4   2.238       .  S
In1          O12   2.238       .  S
In1           O6   2.254       .  S
In1           O8   2.271       .  S
In1           O9   2.225       .  S
In1          O10   2.218       .  S
In1          O13   2.277       .  S
C2            O8   1.265       .  A
C2           O10   1.257       .  A
C2          C462   1.475       .  S
O3           C11   1.258       .  A
O4           C11   1.261       .  A
C5           O12   1.260       .  A
C5            O6   1.259       .  A
C5          C454   1.473       .  S
C7            O9   1.258       .  A
C7           O13   1.264       .  A
C7          C465   1.481       .  S
C11         C457   1.465       .  S
In14         O16   2.243       .  S
In14         O17   2.230       .  S
In14         O25   2.234       .  S
In14         O19   2.261       .  S
In14         O21   2.278       .  S
In14         O22   2.215       .  S
In14         O23   2.216       .  S
In14         O26   2.266       .  S
C15          O21   1.268       .  A
C15          O23   1.255       .  A
C15         C445   1.473       .  S
O16          C24   1.259       .  A
O17          C24   1.261       .  A
C18          O25   1.257       .  A
C18          O19   1.263       .  A
C18         C441   1.473       .  S
C20          O22   1.260       .  A
C20          O26   1.265       .  A
C20         C449   1.476       .  S
C24         C458   1.467       .  S
In27         O29   2.244       .  S
In27         O30   2.236       .  S
In27         O38   2.251       .  S
In27         O32   2.245       .  S
In27         O34   2.271       .  S
In27         O35   2.223       .  S
In27         O36   2.221       .  S
In27         O39   2.277       .  S
C28          O34   1.263       .  A
C28          O36   1.258       .  A
C28         C437   1.476       .  S
O29          C37   1.258       .  A
O30          C37   1.260       .  A
C31          O38   1.259       .  A
C31          O32   1.257       .  A
C31         C453   1.471       .  S
C33          O35   1.257       .  A
C33          O39   1.264       .  A
C33         C434   1.479       .  S
C37         C429   1.467       .  S
In40         O42   2.244       .  S
In40         O43   2.239       .  S
In40         O51   2.249       .  S
In40         O45   2.254       .  S
In40         O47   2.275       .  S
In40         O48   2.222       .  S
In40         O49   2.222       .  S
In40         O52   2.272       .  S
C41          O47   1.264       .  A
C41          O49   1.258       .  A
C41         C425   1.479       .  S
O42          C50   1.258       .  A
O43          C50   1.260       .  A
C44          O51   1.258       .  A
C44          O45   1.261       .  A
C44         C442   1.476       .  S
C46          O48   1.258       .  A
C46          O52   1.264       .  A
C46         C421   1.477       .  S
C50         C430   1.467       .  S
C53          C54   1.535   1_556  S
C53          C59   1.542       .  S
C53         C525   1.535       .  S
C53         C417   1.469       .  S
C54          H61   1.086       .  S
C54          C55   1.368       .  D
C55          C56   1.533   1_554  S
C55         C410   1.476       .  S
C56          C60   1.531       .  S
C56         C526   1.533       .  S
C56          H62   1.112       .  S
C57         C521   1.536       .  S
C57          H63   1.086       .  S
C57          C58   1.365       .  D
C58         C524   1.537       .  S
C58         C413   1.474       .  S
C59          H64   1.086       .  S
C59          C60   1.365       .  D
C60         C420   1.449       .  S
C65          C66   1.535       .  S
C65          C71   1.540       .  S
C65         C537   1.538       .  S
C65         C408   1.468       .  S
C66          H73   1.086       .  S
C66          C67   1.366       .  D
C67          C68   1.534       .  S
C67         C403   1.470       .  S
C68          C72   1.530       .  S
C68         C538   1.535       .  S
C68          H74   1.112       .  S
C69         C533   1.540       .  S
C69          H75   1.086       .  S
C69          C70   1.370       .  D
C70         C536   1.537       .  S
C70         C400   1.483       .  S
C71          H76   1.087       .  S
C71          C72   1.363       .  D
C72         C887   1.447       .  S
C77          C78   1.540       .  S
C77          C83   1.540       .  S
C77         C549   1.540   1_554  S
C77         C407   1.478       .  S
C78          H85   1.086       .  S
C78          C79   1.370       .  D
C79          C80   1.536       .  S
C79         C433   1.480       .  S
C80          C84   1.535       .  S
C80         C550   1.539   1_554  S
C80          H86   1.112       .  S
C81         C545   1.535       .  S
C81          H87   1.086       .  S
C81          C82   1.368       .  D
C82         C548   1.539       .  S
C82         C461   1.480       .  S
C83          H88   1.087       .  S
C83          C84   1.362       .  D
C84         C398   1.453       .  S
C89          C90   1.539       .  S
C89          C95   1.543       .  S
C89         C561   1.539       .  S
C89         C395   1.474       .  S
C90          H97   1.086       .  S
C90          C91   1.367       .  D
C91          C92   1.532       .  S
C91         C450   1.474       .  S
C92          C96   1.529       .  S
C92         C562   1.536       .  S
C92          H98   1.112       .  S
C93         C557   1.538       .  S
C93          H99   1.085       .  S
C93          C94   1.370       .  D
C94         C560   1.538       .  S
C94         C426   1.483       .  S
C95         H100   1.086       .  S
C95          C96   1.364       .  D
C96         C397   1.450       .  S
C101        C102   1.533       .  S
C101        C107   1.538       .  S
C101        C573   1.530       .  S
C101        C418   1.464       .  S
C102        H109   1.086       .  S
C102        C103   1.365       .  D
C103        C104   1.537       .  S
C103        C389   1.475       .  S
C104        C108   1.537       .  S
C104        C574   1.553       .  S
C104        H110   1.107       .  S
C105        C569   1.534       .  S
C105        H111   1.087       .  S
C105        C106   1.368       .  D
C106        C572   1.554       .  S
C106        C385   1.494       .  S
C107        H112   1.086       .  S
C107        C108   1.364       .  D
C108        C394   1.452       .  S
C113        C114   1.538       .  S
C113        C119   1.544       .  S
C113        C585   1.535   1_554  S
C113        C396   1.474       .  S
C114        H121   1.086       .  S
C114        C115   1.368       .  D
C115        C116   1.532       .  S
C115        C377   1.471       .  S
C116        C120   1.526       .  S
C116        C586   1.534   1_554  S
C116        H122   1.112       .  S
C117        C581   1.536       .  S
C117        H123   1.085       .  S
C117        C118   1.369       .  D
C118        C584   1.541       .  S
C118        C381   1.483       .  S
C119        H124   1.086       .  S
C119        C120   1.366       .  D
C120        C393   1.449       .  S
In125       O127   2.270       .  S
In125       O128   2.198       .  S
In125       O136   2.245       .  S
In125       O130   2.239   1_565  S
In125       O132   2.284   1_565  S
In125       O133   2.212       .  S
In125       O134   2.214   1_565  S
In125       O137   2.270       .  S
C126        O132   1.263       .  A
C126        O134   1.252       .  A
C126        C373   1.473       .  S
O127        C135   1.262       .  A
O128        C135   1.259       .  A
C129        O136   1.258       .  A
C129        O130   1.261   1_565  A
C129        C366   1.470       .  S
C131        O133   1.257       .  A
C131        O137   1.264       .  A
C131        C404   1.471       .  S
C135        C370   1.468       .  S
In138       O140   2.259       .  S
In138       O141   2.210       .  S
In138       O149   2.242   1_565  S
In138       O143   2.254       .  S
In138       O145   2.275       .  S
In138       O146   2.199   1_565  S
In138       O147   2.220       .  S
In138       O150   2.270   1_565  S
C139        O145   1.265       .  A
C139        O147   1.256       .  A
C139        C414   1.475       .  S
O140        C148   1.264       .  A
O141        C148   1.258       .  A
C142        O149   1.254   1_565  A
C142        O143   1.260       .  A
C142        C357   1.469       .  S
C144        O146   1.257       .  A
C144        O150   1.265       .  A
C144        C361   1.470       .  S
C148        C369   1.459       .  S
In151       O153   2.273       .  S
In151       O154   2.230       .  S
In151       O162   2.242       .  S
In151       O156   2.244   1_565  S
In151       O158   2.268   1_565  S
In151       O159   2.232       .  S
In151       O160   2.211   1_565  S
In151       O163   2.244   1_565  S
C152        O158   1.263       .  A
C152        O160   1.257       .  A
C152        C353   1.473       .  S
O153        C161   1.263       .  A
O154        C161   1.258       .  A
C155        O162   1.260       .  A
C155        O156   1.258   1_565  A
C155        C365   1.469       .  S
C157        O159   1.261       .  A
C157        O163   1.258   1_565  A
C157        C350   1.467       .  S
C161        C399   1.480       .  S
In164       O166   2.276   1_565  S
In164       O167   2.221   1_565  S
In164       O175   2.241   1_565  S
In164       O169   2.240       .  S
In164       O171   2.259       .  S
In164       O172   2.241   1_565  S
In164       O173   2.219       .  S
In164       O176   2.240       .  S
C165        O171   1.263       .  A
C165        O173   1.259       .  A
C165        C409   1.472       .  S
O166        C174   1.263       .  A
O167        C174   1.258       .  A
C168        O175   1.261   1_565  A
C168        O169   1.258       .  A
C168        C358   1.470       .  S
C170        O172   1.260   1_565  A
C170        O176   1.258       .  A
C170        C349   1.466       .  S
C174        C345   1.478       .  S
C177        C178   1.541   1_556  S
C177        C183   1.543       .  S
C177        C649   1.542       .  S
C177        C341   1.483       .  S
C178        H185   1.086       .  S
C178        C179   1.368       .  D
C179        C180   1.534       .  S
C179        C334   1.476       .  S
C180        C184   1.530   1_554  S
C180        C650   1.538   1_554  S
C180        H186   1.112       .  S
C181        C645   1.532       .  S
C181        H187   1.087       .  S
C181        C182   1.366       .  D
C182        C648   1.552       .  S
C182        C337   1.493       .  S
C183        H188   1.086       .  S
C183        C184   1.365       .  D
C184        C343   1.454       .  S
C189        C190   1.534       .  S
C189        C195   1.538       .  S
C189        C661   1.526       .  S
C189        C332   1.467       .  S
C190        H197   1.086       .  S
C190        C191   1.368       .  D
C191        C192   1.537       .  S
C191        C328   1.478       .  S
C192        C196   1.543       .  S
C192        C662   1.552       .  S
C192        H198   1.108       .  S
C193        C657   1.528   1_554  S
C193        H199   1.087       .  S
C193        C194   1.364       .  D
C194        C660   1.554       .  S
C194        C323   1.489       .  S
C195        H200   1.086       .  S
C195        C196   1.366       .  D
C196        C344   1.459       .  S
C201        C202   1.538   1_556  S
C201        C207   1.535       .  S
C201        C673   1.532       .  S
C201        C320   1.470       .  S
C202        H209   1.086       .  S
C202        C203   1.369       .  D
C203        C204   1.538   1_554  S
C203        C422   1.481       .  S
C204        C208   1.541       .  S
C204        C674   1.551       .  S
C204        H210   1.108       .  S
C205        C669   1.533       .  S
C205        H211   1.087       .  S
C205        C206   1.366       .  D
C206        C672   1.551       .  S
C206        C446   1.491       .  S
C207        H212   1.087       .  S
C207        C208   1.361       .  D
C208        C321   1.456       .  S
C213        C214   1.543       .  S
C213        C219   1.540       .  S
C213        C685   1.539       .  S
C213        C342   1.479       .  S
C214        H221   1.086       .  S
C214        C215   1.371       .  D
C215        C216   1.535       .  S
C215        C466   1.481       .  S
C216        C220   1.531       .  S
C216        C686   1.536       .  S
C216        H222   1.112       .  S
C217        C681   1.539   1_554  S
C217        H223   1.086       .  S
C217        C218   1.369       .  D
C218        C684   1.533   1_554  S
C218        C438   1.477       .  S
C219        H224   1.086       .  S
C219        C220   1.363       .  D
C220        C322   1.450       .  S
C225        C226   1.536   1_556  S
C225        C231   1.536       .  S
C225        C697   1.536       .  S
C225        C331   1.464       .  S
C226        H233   1.086       .  S
C226        C227   1.368       .  D
C227        C228   1.534   1_554  S
C227        C354   1.473       .  S
C228        C232   1.532       .  S
C228        C698   1.534       .  S
C228        H234   1.112       .  S
C229        C693   1.534       .  S
C229        H235   1.086       .  S
C229        C230   1.367       .  D
C230        C696   1.538       .  S
C230        C374   1.475       .  S
C231        H236   1.086       .  S
C231        C232   1.361       .  D
C232        C318   1.444   1_556  S
C237        C238   1.535       .  S
C237        C243   1.542       .  S
C237        C709   1.538       .  S
C237        C319   1.466       .  S
C238        H245   1.086       .  S
C238        C239   1.364       .  D
C239        C240   1.531       .  S
C239        C362   1.465       .  S
C240        C244   1.526       .  S
C240        C710   1.532       .  S
C240        H246   1.112       .  S
C241        C705   1.539       .  S
C241        H247   1.086       .  S
C241        C242   1.369       .  D
C242        C708   1.535       .  S
C242        C346   1.478       .  S
C243        H248   1.086       .  S
C243        C244   1.364       .  D
C244        C785   1.445       .  S
In249       O251   2.243       .  S
In249       O252   2.239   1_655  S
In249       O260   2.237   1_655  S
In249       O254   2.267       .  S
In249       O256   2.281       .  S
In249       O257   2.209   1_655  S
In249       O258   2.228       .  S
In249       O261   2.262   1_655  S
C250        O256   1.268       .  A
C250        O258   1.256       .  A
C250        C338   1.478       .  S
O251        C259   1.258       .  A
O252        C259   1.260   1_455  A
C253        O260   1.258   1_655  A
C253        O254   1.265       .  A
C253        C310   1.477   1_655  S
C255        O257   1.261       .  A
C255        O261   1.266       .  A
C255        C390   1.472       .  S
C259        C313   1.466       .  S
In262       O264   2.278   1_655  S
In262       O265   2.218   1_655  S
In262       O273   2.258       .  S
In262       O267   2.240       .  S
In262       O269   2.263       .  S
In262       O270   2.244   1_655  S
In262       O271   2.218       .  S
In262       O274   2.231       .  S
C263        O269   1.264       .  A
C263        O271   1.259       .  A
C263        C327   1.473       .  S
O264        C272   1.266       .  A
O265        C272   1.257       .  A
C266        O273   1.263       .  A
C266        O267   1.257       .  A
C266        C305   1.475       .  S
C268        O270   1.259   1_655  A
C268        O274   1.260       .  A
C268        C314   1.466       .  S
C272        C382   1.479       .  S
In275       O277   2.240   1_655  S
In275       O278   2.225       .  S
In275       O286   2.238       .  S
In275       O280   2.264   1_655  S
In275       O282   2.286   1_655  S
In275       O283   2.214       .  S
In275       O284   2.215   1_655  S
In275       O287   2.267       .  S
C276        O282   1.270       .  A
C276        O284   1.256       .  A
C276        C386   1.477       .  S
O277        C285   1.259   1_455  A
O278        C285   1.261       .  A
C279        O286   1.257       .  A
C279        O280   1.264   1_655  A
C279        C309   1.477       .  S
C281        O283   1.261       .  A
C281        O287   1.267       .  A
C281        C333   1.478       .  S
C285        C301   1.465       .  S
In288       O290   2.238       .  S
In288       O291   2.232   1_655  S
In288       O299   2.232   1_655  S
In288       O293   2.264       .  S
In288       O295   2.274       .  S
In288       O296   2.205   1_655  S
In288       O297   2.219       .  S
In288       O300   2.254   1_655  S
C289        O295   1.268       .  A
C289        O297   1.255       .  A
C289        C324   1.474       .  S
O290        C298   1.258       .  A
O291        C298   1.260   1_455  A
C292        O299   1.256   1_655  A
C292        O293   1.264       .  A
C292        C306   1.474       .  S
C294        O296   1.262       .  A
C294        O300   1.266       .  A
C294        C378   1.471       .  S
C298        C302   1.464       .  S
C301        H303   1.086   1_655  S
C301        C302   1.339       .  D
C302        H304   1.086       .  S
C305        H307   1.087       .  S
C305        C306   1.341       .  D
C306        H308   1.087   1_655  S
C309        H311   1.087       .  S
C309        C310   1.342   1_655  D
C310        H312   1.087       .  S
C313        H315   1.087       .  S
C313        C314   1.340       .  D
C314        H316   1.086   1_655  S
C317        C712   1.444       .  S
C317        C318   1.207       .  T
C319        C788   1.206       .  T
C320        C787   1.207       .  T
C321        C790   1.214       .  T
C322        C789   1.211       .  T
C323        H325   1.087       .  S
C323        C324   1.338       .  D
C324        H326   1.083       .  S
C327        H329   1.086       .  S
C327        C328   1.345       .  D
C328        H330   1.087       .  S
C331        C800   1.204       .  T
C332        C799   1.206       .  T
C333        H335   1.086       .  S
C333        C334   1.345       .  D
C334        H336   1.087       .  S
C337        H339   1.087       .  S
C337        C338   1.342       .  D
C338        H340   1.083       .  S
C341        C810   1.215       .  T
C342        C809   1.213       .  T
C343        C812   1.213       .  T
C344        C811   1.216       .  T
C345        H347   1.086       .  S
C345        C346   1.345       .  D
C346        H348   1.087       .  S
C349        H351   1.087       .  S
C349        C350   1.339       .  D
C350        H352   1.087   1_565  S
C353        H355   1.086       .  S
C353        C354   1.344       .  D
C354        H356   1.087       .  S
C357        H359   1.087   1_565  S
C357        C358   1.339       .  D
C358        H360   1.086       .  S
C361        H363   1.086       .  S
C361        C362   1.343       .  D
C362        H364   1.087       .  S
C365        H367   1.087   1_565  S
C365        C366   1.340       .  D
C366        H368   1.087       .  S
C369        H371   1.087       .  S
C369        C370   1.340       .  D
C370        H372   1.086       .  S
C373        H375   1.085       .  S
C373        C374   1.347       .  D
C374        H376   1.087       .  S
C377        H379   1.087       .  S
C377        C378   1.342       .  D
C378        H380   1.086       .  S
C381        H383   1.087       .  S
C381        C382   1.349       .  D
C382        H384   1.085       .  S
C385        H387   1.087       .  S
C385        C386   1.341       .  D
C386        H388   1.082       .  S
C389        H391   1.087       .  S
C389        C390   1.345       .  D
C390        H392   1.086       .  S
C393        C862   1.210       .  T
C394        C861   1.212       .  T
C395        C864   1.210       .  T
C396        C863   1.210       .  T
C397        C866   1.211       .  T
C398        C865   1.212       .  T
C399        H401   1.086       .  S
C399        C400   1.347       .  D
C400        H402   1.087       .  S
C403        H405   1.087       .  S
C403        C404   1.344       .  D
C404        H406   1.086       .  S
C407        C876   1.212       .  T
C408        C875   1.206       .  T
C409        H411   1.086       .  S
C409        C410   1.344       .  D
C410        H412   1.087       .  S
C413        H415   1.087       .  S
C413        C414   1.347       .  D
C414        H416   1.086       .  S
C417        C886   1.207       .  T
C418        C885   1.204       .  T
C419        C540   1.450       .  S
C419        C420   1.210   1_554  T
C421        H423   1.085       .  S
C421        C422   1.347       .  D
C422        H424   1.086       .  S
C425        H427   1.085       .  S
C425        C426   1.347       .  D
C426        H428   1.087       .  S
C429        H431   1.087       .  S
C429        C430   1.340       .  D
C430        H432   1.087       .  S
C433        H435   1.086       .  S
C433        C434   1.347       .  D
C434        H436   1.086       .  S
C437        H439   1.086       .  S
C437        C438   1.345       .  D
C438        H440   1.086       .  S
C441        H443   1.086       .  S
C441        C442   1.342       .  D
C442        H444   1.086       .  S
C445        H447   1.082       .  S
C445        C446   1.340       .  D
C446        H448   1.087       .  S
C449        H451   1.086       .  S
C449        C450   1.344       .  D
C450        H452   1.087       .  S
C453        H455   1.086       .  S
C453        C454   1.342       .  D
C454        H456   1.086       .  S
C457        H459   1.087       .  S
C457        C458   1.338       .  D
C458        H460   1.087       .  S
C461        H463   1.087       .  S
C461        C462   1.348       .  D
C462        H464   1.085       .  S
C465        H467   1.085       .  S
C465        C466   1.346       .  D
C466        H468   1.087       .  S
In469       O471   2.248       .  S
In469       O472   2.233       .  S
In469       O480   2.259       .  S
In469       O474   2.243       .  S
In469       O476   2.280       .  S
In469       O477   2.218       .  S
In469       O478   2.233       .  S
In469       O481   2.269       .  S
C470        O476   1.265       .  A
C470        O478   1.258       .  A
C470        C930   1.483       .  S
O471        C479   1.258       .  A
O472        C479   1.260       .  A
C473        O480   1.261       .  A
C473        O474   1.255       .  A
C473        C922   1.473       .  S
C475        O477   1.260       .  A
C475        O481   1.265       .  A
C475        C933   1.478       .  S
C479        C925   1.467       .  S
In482       O484   2.243       .  S
In482       O485   2.238       .  S
In482       O493   2.240       .  S
In482       O487   2.262       .  S
In482       O489   2.277       .  S
In482       O490   2.211       .  S
In482       O491   2.223       .  S
In482       O494   2.267       .  S
C483        O489   1.266       .  A
C483        O491   1.255       .  A
C483        C913   1.473       .  S
O484        C492   1.256       .  A
O485        C492   1.259       .  A
C486        O493   1.257       .  A
C486        O487   1.262       .  A
C486        C909   1.474       .  S
C488        O490   1.261       .  A
C488        O494   1.268       .  A
C488        C917   1.477       .  S
C492        C926   1.466       .  S
In495       O497   2.244       .  S
In495       O498   2.240       .  S
In495       O506   2.241       .  S
In495       O500   2.254       .  S
In495       O502   2.276       .  S
In495       O503   2.219       .  S
In495       O504   2.214       .  S
In495       O507   2.265       .  S
C496        O502   1.264       .  A
C496        O504   1.257       .  A
C496        C905   1.477       .  S
O497        C505   1.259       .  A
O498        C505   1.260       .  A
C499        O506   1.257       .  A
C499        O500   1.261       .  A
C499        C921   1.472       .  S
C501        O503   1.259       .  A
C501        O507   1.264       .  A
C501        C902   1.474       .  S
C505        C897   1.468       .  S
In508       O510   2.245       .  S
In508       O511   2.239       .  S
In508       O519   2.249       .  S
In508       O513   2.251       .  S
In508       O515   2.272       .  S
In508       O516   2.221       .  S
In508       O517   2.226       .  S
In508       O520   2.269       .  S
C509        O515   1.263       .  A
C509        O517   1.258       .  A
C509        C893   1.478       .  S
O510        C518   1.258       .  A
O511        C518   1.260       .  A
C512        O519   1.258       .  A
C512        O513   1.260       .  A
C512        C910   1.476       .  S
C514        O516   1.258       .  A
C514        O520   1.264       .  A
C514        C889   1.476       .  S
C518        C898   1.469       .  S
C521        C522   1.536       .  S
C521        C527   1.535       .  S
C521        C885   1.463       .  S
C522        H529   1.085       .  S
C522        C523   1.370       .  D
C523        C524   1.540       .  S
C523        C878   1.482       .  S
C524        C528   1.535       .  S
C524        H530   1.112       .  S
C525        H531   1.086       .  S
C525        C526   1.367       .  D
C526        C881   1.474       .  S
C527        H532   1.087       .  S
C527        C528   1.359       .  D
C528        C888   1.447       .  S
C533        C534   1.542   1_554  S
C533        C539   1.538       .  S
C533        C876   1.478       .  S
C534        H541   1.085       .  S
C534        C535   1.372       .  D
C535        C536   1.538   1_556  S
C535        C871   1.486       .  S
C536        C540   1.533       .  S
C536        H542   1.112       .  S
C537        H543   1.086       .  S
C537        C538   1.369       .  D
C538        C868   1.476       .  S
C539        H544   1.087       .  S
C539        C540   1.360       .  D
C545        C546   1.535       .  S
C545        C551   1.537       .  S
C545        C875   1.468       .  S
C546        H553   1.086       .  S
C546        C547   1.368       .  D
C547        C548   1.536       .  S
C547        C901   1.477       .  S
C548        C552   1.536       .  S
C548        H554   1.112       .  S
C549        H555   1.085       .  S
C549        C550   1.371       .  D
C550        C929   1.486       .  S
C551        H556   1.087       .  S
C551        C552   1.362       .  D
C552        C866   1.450       .  S
C557        C558   1.540   1_554  S
C557        C563   1.541       .  S
C557        C863   1.474       .  S
C558        H565   1.086       .  S
C558        C559   1.368       .  D
C559        C560   1.534   1_556  S
C559        C918   1.477       .  S
C560        C564   1.532       .  S
C560        H566   1.112   1_554  S
C561        H567   1.085       .  S
C561        C562   1.371       .  D
C562        C894   1.482       .  S
C563        H568   1.086       .  S
C563        C564   1.363       .  D
C564        C865   1.452       .  S
C569        C570   1.537   1_554  S
C569        C575   1.531       .  S
C569        C886   1.468   1_554  S
C570        H577   1.086       .  S
C570        C571   1.369       .  D
C571        C572   1.541   1_556  S
C571        C857   1.483       .  S
C572        C576   1.540       .  S
C572        H578   1.107       .  S
C573        H579   1.087       .  S
C573        C574   1.365       .  D
C574        C853   1.490       .  S
C575        H580   1.087       .  S
C575        C576   1.357       .  D
C576        C862   1.449       .  S
C581        C582   1.540       .  S
C581        C587   1.539       .  S
C581        C864   1.474       .  S
C582        H589   1.086       .  S
C582        C583   1.369       .  D
C583        C584   1.537       .  S
C583        C845   1.479       .  S
C584        C588   1.534       .  S
C584        H590   1.112       .  S
C585        H591   1.086       .  S
C585        C586   1.367       .  D
C586        C849   1.472       .  S
C587        H592   1.087       .  S
C587        C588   1.362       .  D
C588        C861   1.451       .  S
In593       O595   2.235   1_565  S
In593       O596   2.246       .  S
In593       O604   2.245       .  S
In593       O598   2.248   1_565  S
In593       O600   2.269   1_565  S
In593       O601   2.238       .  S
In593       O602   2.214   1_565  S
In593       O605   2.280       .  S
C594        O600   1.264       .  A
C594        O602   1.258       .  A
C594        C841   1.474       .  S
O595        C603   1.257   1_545  A
O596        C603   1.262       .  A
C597        O604   1.261       .  A
C597        O598   1.258   1_565  A
C597        C834   1.474       .  S
C599        O601   1.257       .  A
C599        O605   1.263       .  A
C599        C872   1.483       .  S
C603        C838   1.467       .  S
In606       O608   2.236       .  S
In606       O609   2.242   1_565  S
In606       O617   2.237   1_565  S
In606       O611   2.243       .  S
In606       O613   2.265       .  S
In606       O614   2.234   1_565  S
In606       O615   2.213       .  S
In606       O618   2.274   1_565  S
C607        O613   1.263       .  A
C607        O615   1.257       .  A
C607        C882   1.472       .  S
O608        C616   1.257       .  A
O609        C616   1.263   1_545  A
C610        O617   1.261   1_565  A
C610        O611   1.258       .  A
C610        C825   1.469       .  S
C612        O614   1.258       .  A
C612        O618   1.262       .  A
C612        C829   1.480       .  S
C616        C837   1.467       .  S
In619       O621   2.269       .  S
In619       O622   2.216       .  S
In619       O630   2.237       .  S
In619       O624   2.264   1_565  S
In619       O626   2.286   1_565  S
In619       O627   2.233       .  S
In619       O628   2.223   1_565  S
In619       O631   2.248   1_565  S
C620        O626   1.266       .  A
C620        O628   1.257       .  A
C620        C821   1.483       .  S
O621        C629   1.265       .  A
O622        C629   1.259       .  A
C623        O630   1.255       .  A
C623        O624   1.262   1_565  A
C623        C833   1.473       .  S
C625        O627   1.259       .  A
C625        O631   1.259   1_565  A
C625        C818   1.468       .  S
C629        C867   1.476       .  S
In632       O634   2.264   1_565  S
In632       O635   2.209   1_565  S
In632       O643   2.233   1_565  S
In632       O637   2.248       .  S
In632       O639   2.271       .  S
In632       O640   2.236   1_565  S
In632       O641   2.220       .  S
In632       O644   2.250       .  S
C633        O639   1.264       .  A
C633        O641   1.258       .  A
C633        C877   1.477       .  S
O634        C642   1.264       .  A
O635        C642   1.259       .  A
C636        O643   1.256   1_565  A
C636        O637   1.262       .  A
C636        C826   1.467   1_565  S
C638        O640   1.259   1_565  A
C638        O644   1.259       .  A
C638        C817   1.468       .  S
C642        C813   1.473       .  S
C645        C646   1.540       .  S
C645        C651   1.541       .  S
C645        C809   1.480       .  S
C646        H653   1.086       .  S
C646        C647   1.369       .  D
C647        C648   1.536       .  S
C647        C802   1.479       .  S
C648        C652   1.538       .  S
C648        H654   1.108       .  S
C649        H655   1.086       .  S
C649        C650   1.371       .  D
C650        C805   1.484       .  S
C651        H656   1.086       .  S
C651        C652   1.366       .  D
C652        C811   1.459       .  S
C657        C658   1.531       .  S
C657        C663   1.532       .  S
C657        C800   1.464       .  S
C658        H665   1.087       .  S
C658        C659   1.365       .  D
C659        C660   1.553   1_556  S
C659        C796   1.490       .  S
C660        C664   1.545   1_554  S
C660        H666   1.105       .  S
C661        H667   1.087       .  S
C661        C662   1.362       .  D
C662        C791   1.485       .  S
C663        H668   1.087       .  S
C663        C664   1.361       .  D
C664        C812   1.453       .  S
C669        C670   1.535       .  S
C669        C675   1.536       .  S
C669        C788   1.467       .  S
C670        H677   1.086       .  S
C670        C671   1.367       .  D
C671        C672   1.537       .  S
C671        C890   1.477       .  S
C672        C676   1.537       .  S
C672        H678   1.107       .  S
C673        H679   1.087       .  S
C673        C674   1.366       .  D
C674        C914   1.489       .  S
C675        H680   1.087       .  S
C675        C676   1.362       .  D
C676        C789   1.450       .  S
C681        C682   1.541       .  S
C681        C687   1.546       .  S
C681        C810   1.483       .  S
C682        H689   1.086       .  S
C682        C683   1.369       .  D
C683        C684   1.532       .  S
C683        C934   1.476       .  S
C684        C688   1.530       .  S
C684        H690   1.112       .  S
C685        H691   1.086       .  S
C685        C686   1.369       .  D
C686        C906   1.479       .  S
C687        H692   1.086       .  S
C687        C688   1.368       .  D
C688        C790   1.456       .  S
C693        C694   1.542       .  S
C693        C699   1.533       .  S
C693        C799   1.466       .  S
C694        H701   1.086       .  S
C694        C695   1.372       .  D
C695        C696   1.539       .  S
C695        C822   1.484       .  S
C696        C700   1.535       .  S
C696        H702   1.112       .  S
C697        H703   1.086       .  S
C697        C698   1.368       .  D
C698        C842   1.475       .  S
C699        H704   1.087       .  S
C699        C700   1.357       .  D
C700        C786   1.445       .  S
C705        C706   1.541   1_554  S
C705        C711   1.539       .  S
C705        C787   1.470   1_554  S
C706        H713   1.085       .  S
C706        C707   1.371       .  D
C707        C708   1.535   1_556  S
C707        C830   1.482       .  S
C708        C712   1.528       .  S
C708        H714   1.112       .  S
C709        H715   1.086       .  S
C709        C710   1.369       .  D
C710        C814   1.471       .  S
C711        H716   1.087       .  S
C711        C712   1.360       .  D
In717       O719   2.242       .  S
In717       O720   2.241   1_655  S
In717       O728   2.252   1_655  S
In717       O722   2.261       .  S
In717       O724   2.288       .  S
In717       O725   2.228   1_655  S
In717       O726   2.220       .  S
In717       O729   2.270   1_655  S
C718        O724   1.266       .  A
C718        O726   1.257       .  A
C718        C806   1.483       .  S
O719        C727   1.258       .  A
O720        C727   1.261   1_455  A
C721        O728   1.258   1_655  A
C721        O722   1.262       .  A
C721        C778   1.479       .  S
C723        O725   1.259       .  A
C723        O729   1.265       .  A
C723        C858   1.479       .  S
C727        C781   1.468       .  S
In730       O732   2.273   1_655  S
In730       O733   2.204   1_655  S
In730       O741   2.241   1_655  S
In730       O735   2.268       .  S
In730       O737   2.289       .  S
In730       O738   2.238   1_655  S
In730       O739   2.221       .  S
In730       O742   2.237       .  S
C731        O737   1.267       .  A
C731        O739   1.254       .  A
C731        C795   1.477       .  S
O732        C740   1.264       .  A
O733        C740   1.257       .  A
C734        O741   1.257   1_655  A
C734        O735   1.263       .  A
C734        C773   1.477       .  S
C736        O738   1.259   1_655  A
C736        O742   1.262       .  A
C736        C782   1.468   1_655  S
C740        C850   1.471       .  S
In743       O745   2.235   1_655  S
In743       O746   2.231       .  S
In743       O754   2.230       .  S
In743       O748   2.265       .  S
In743       O750   2.275   1_655  S
In743       O751   2.221       .  S
In743       O752   2.218       .  S
In743       O755   2.263       .  S
C744        O750   1.269       .  A
C744        O752   1.256   1_455  A
C744        C854   1.473       .  S
O745        C753   1.257   1_455  A
O746        C753   1.262       .  A
C747        O754   1.258       .  A
C747        O748   1.265       .  A
C747        C777   1.477       .  S
C749        O751   1.262       .  A
C749        O755   1.267       .  A
C749        C801   1.478       .  S
C753        C769   1.463       .  S
In756       O758   2.229       .  S
In756       O759   2.231       .  S
In756       O767   2.235   1_655  S
In756       O761   2.255       .  S
In756       O763   2.262       .  S
In756       O764   2.220   1_655  S
In756       O765   2.218       .  S
In756       O768   2.266   1_655  S
C757        O763   1.268       .  A
C757        O765   1.256       .  A
C757        C792   1.470       .  S
O758        C766   1.257       .  A
O759        C766   1.263       .  A
C760        O767   1.261   1_655  A
C760        O761   1.262       .  A
C760        C774   1.478       .  S
C762        O764   1.261       .  A
C762        O768   1.266       .  A
C762        C846   1.478       .  S
C766        C770   1.462       .  S
C769        H771   1.087   1_655  S
C769        C770   1.336       .  D
C770        H772   1.087       .  S
C773        H775   1.087   1_655  S
C773        C774   1.343       .  D
C774        H776   1.087       .  S
C777        H779   1.087       .  S
C777        C778   1.343       .  D
C778        H780   1.086   1_655  S
C781        H783   1.087       .  S
C781        C782   1.340   1_655  D
C782        H784   1.087       .  S
C785        C786   1.208       .  T
C791        H793   1.087       .  S
C791        C792   1.337       .  D
C792        H794   1.082       .  S
C795        H797   1.085       .  S
C795        C796   1.339       .  D
C796        H798   1.087       .  S
C801        H803   1.085       .  S
C801        C802   1.345       .  D
C802        H804   1.086       .  S
C805        H807   1.086       .  S
C805        C806   1.349       .  D
C806        H808   1.085       .  S
C813        H815   1.086       .  S
C813        C814   1.342       .  D
C814        H816   1.087       .  S
C817        H819   1.087       .  S
C817        C818   1.341       .  D
C818        H820   1.087   1_565  S
C821        H823   1.085       .  S
C821        C822   1.349       .  D
C822        H824   1.086       .  S
C825        H827   1.087       .  S
C825        C826   1.339   1_565  D
C826        H828   1.087       .  S
C829        H831   1.085       .  S
C829        C830   1.345       .  D
C830        H832   1.086       .  S
C833        H835   1.087       .  S
C833        C834   1.340       .  D
C834        H836   1.086   1_565  S
C837        H839   1.087       .  S
C837        C838   1.338       .  D
C838        H840   1.087   1_565  S
C841        H843   1.086       .  S
C841        C842   1.345       .  D
C842        H844   1.087       .  S
C845        H847   1.087       .  S
C845        C846   1.346       .  D
C846        H848   1.086       .  S
C849        H851   1.087       .  S
C849        C850   1.344       .  D
C850        H852   1.085       .  S
C853        H855   1.087       .  S
C853        C854   1.340       .  D
C854        H856   1.082       .  S
C857        H859   1.086       .  S
C857        C858   1.347       .  D
C858        H860   1.085       .  S
C867        H869   1.086       .  S
C867        C868   1.345       .  D
C868        H870   1.087       .  S
C871        H873   1.086       .  S
C871        C872   1.348       .  D
C872        H874   1.085       .  S
C877        H879   1.085       .  S
C877        C878   1.347       .  D
C878        H880   1.087       .  S
C881        H883   1.087       .  S
C881        C882   1.344       .  D
C882        H884   1.086       .  S
C887        C888   1.209       .  T
C889        H891   1.086       .  S
C889        C890   1.345       .  D
C890        H892   1.086       .  S
C893        H895   1.085       .  S
C893        C894   1.346       .  D
C894        H896   1.087       .  S
C897        H899   1.087       .  S
C897        C898   1.341       .  D
C898        H900   1.087       .  S
C901        H903   1.087       .  S
C901        C902   1.345       .  D
C902        H904   1.086       .  S
C905        H907   1.085       .  S
C905        C906   1.346       .  D
C906        H908   1.087       .  S
C909        H911   1.086       .  S
C909        C910   1.343       .  D
C910        H912   1.086       .  S
C913        H915   1.083       .  S
C913        C914   1.341       .  D
C914        H916   1.087       .  S
C917        H919   1.086       .  S
C917        C918   1.345       .  D
C918        H920   1.087       .  S
C921        H923   1.086       .  S
C921        C922   1.341       .  D
C922        H924   1.086       .  S
C925        H927   1.087       .  S
C925        C926   1.340       .  D
C926        H928   1.087       .  S
C929        H931   1.086       .  S
C929        C930   1.350       .  D
C930        H932   1.085       .  S
C933        H935   1.086       .  S
C933        C934   1.345       .  D
C934        H936   1.087       .  S
