geometry optimzed in LAMMPS
_audit_creation_date              2020-11-30 
_audit_creation_method            'lammps2cif' 
_symmetry_space_group_name_H-M    'P1' 
_symmetry_Int_Tables_number       1 
_symmetry_cell_setting            triclinic 
loop_ 
_symmetry_equiv_pos_as_xyz 
  x,y,z 
_cell_length_a                    31.84088662 
_cell_length_b                    31.691783859313478 
_cell_length_c                    31.808036722520168 
_cell_angle_alpha                 89.97108356010934 
_cell_angle_beta                  91.10937256179504 
_cell_angle_gamma                 90.3948110889706 
loop_ 
_atom_site_label 
_atom_site_type_symbol 
_atom_site_fract_x 
_atom_site_fract_y 
_atom_site_fract_z 
_atom_site_charge 
N1          N  0.59223689  0.64375923  0.00155340    -0.26500
N2          N  0.57581901  0.66787625  0.03085903    -0.34300
C3          C  0.60716641  0.68252778  0.05613405     0.01900
C4          C  0.64491856  0.66745606  0.04147878     0.07900
C5          C  0.63404519  0.64315222  0.00694777    -0.05200
H6          H  0.60244057  0.69901951  0.08540637     0.08600
H7          H  0.65445872  0.62163961  0.99075730     0.09800
Cu8        Cu  0.51126102  0.67347364  0.03938838     0.44200
Cu9        Cu  0.55964972  0.59947351  0.96576067     0.42000
Cu10       Cu  0.45092996  0.59908509  0.97471609     0.43900
N11         N  0.44574105  0.67168981  0.03624882    -0.33800
N12         N  0.42461010  0.64684469  0.00986988    -0.26900
C13         C  0.38348977  0.64982286  0.01748301    -0.04200
C14         C  0.37793451  0.67733157  0.05057519     0.08000
C15         C  0.41826094  0.69030630  0.06204577     0.01800
H16         H  0.35985680  0.62883631  0.00406837     0.09500
H17         H  0.42726389  0.70829704  0.08968543     0.08500
N18         N  0.48288528  0.54634411  0.95427330    -0.35300
N19         N  0.52407583  0.54653592  0.95059846    -0.27500
C20         C  0.53712453  0.50688401  0.94346867    -0.02700
C21         C  0.50230659  0.48038337  0.94268965     0.05900
C22         C  0.46843015  0.50659049  0.94950302     0.04000
H23         H  0.56971490  0.49765291  0.94199660     0.09100
H24         H  0.43610020  0.49708497  0.95371235     0.07900
N25         N  0.58462916  0.26119824  0.98718690    -0.26500
N26         N  0.56604684  0.23445729  0.01292820    -0.34300
C27         C  0.59589686  0.21500496  0.03640872     0.01900
C28         C  0.63514804  0.22937539  0.02422784     0.07900
C29         C  0.62635723  0.25844442  0.99284192    -0.05200
H30         H  0.58923966  0.19590786  0.06368806     0.08600
H31         H  0.64841943  0.28100921  0.98013652     0.09800
Cu32       Cu  0.50091047  0.23140583  0.02035585     0.44200
Cu33       Cu  0.55553061  0.31210355  0.95789089     0.42000
Cu34       Cu  0.44634790  0.31339160  0.96144287     0.43900
N35         N  0.43546962  0.23695717  0.01723917    -0.33800
N36         N  0.41646635  0.26428613  0.99202386    -0.28100
C37         C  0.37527971  0.26408449  0.99977805    -0.04200
C38         C  0.36740405  0.23623062  0.03218322     0.08000
C39         C  0.40650507  0.21962021  0.04262972     0.01800
H40         H  0.35380555  0.28777903  0.98786645     0.09500
H41         H  0.41404386  0.20045533  0.06983512     0.08500
N42         N  0.48060754  0.36734815  0.94784903    -0.35300
N43         N  0.52196978  0.36699793  0.94623435    -0.27500
C44         C  0.53613574  0.40695059  0.94229305    -0.02700
C45         C  0.50186041  0.43374801  0.94156102     0.05900
C46         C  0.46717555  0.40744879  0.94513139     0.04000
H47         H  0.56896076  0.41597920  0.94257999     0.09100
H48         H  0.43477394  0.41689130  0.94798205     0.07900
N49         N  0.69109555  0.00965644  0.62152765    -0.26500
N50         N  0.71347178  0.98276604  0.59955964    -0.34300
C51         C  0.73189486  0.95523001  0.62636633     0.01900
C52         C  0.72155920  0.96595805  0.66713922     0.07900
C53         C  0.69570428  0.00059720  0.66253165    -0.05200
H54         H  0.74778006  0.92691600  0.61661462     0.08600
H55         H  0.67646306  0.01402341  0.68675097     0.09800
Cu56       Cu  0.71311697  0.98106827  0.53390594     0.44200
Cu57       Cu  0.64356987  0.04747650  0.59701642     0.42000
Cu58       Cu  0.63727805  0.05394060  0.48761190     0.43900
N59         N  0.70799954  0.99306849  0.46945452    -0.33800
N60         N  0.68257358  0.02220473  0.45388302    -0.28100
C61         C  0.68316348  0.02047499  0.41183217    -0.04200
C62         C  0.70956425  0.98837040  0.39963265     0.08000
C63         C  0.72469013  0.97148179  0.43722727     0.01800
H64         H  0.66116155  0.03711431  0.39159173     0.09500
H65         H  0.74252202  0.94273719  0.44089799     0.08500
N66         N  0.58769959  0.07224085  0.52489754    -0.35300
N67         N  0.59006421  0.06984146  0.56628824    -0.27500
C68         C  0.55178463  0.07697158  0.58204191    -0.02700
C69         C  0.52384421  0.08408505  0.54883504     0.05900
C70         C  0.54787006  0.08105237  0.51306911     0.04000
H71         H  0.54421609  0.07385412  0.61491316     0.09100
H72         H  0.53660173  0.08176176  0.48079443     0.07900
N73         N  0.31635808  0.01506720  0.63428445    -0.26500
N74         N  0.28923633  0.99066593  0.61350236    -0.34300
C75         C  0.27166871  0.96346419  0.64083353     0.01900
C76         C  0.28796350  0.97177833  0.68070841     0.07900
C77         C  0.31616413  0.00456015  0.67509366    -0.05200
H78         H  0.25179756  0.93704601  0.63173533     0.08600
H79         H  0.33887443  0.01615453  0.69815591     0.09800
Cu80       Cu  0.28263555  0.99164057  0.54815454     0.44200
Cu81       Cu  0.36220436  0.05231877  0.60687300     0.42000
Cu82       Cu  0.35626689  0.06289513  0.49678068     0.43900
N83         N  0.28325012  0.00221670  0.48343286    -0.33800
N84         N  0.30774685  0.03065168  0.46565324    -0.28100
C85         C  0.30426422  0.02662723  0.42373165    -0.04200
C86         C  0.27684634  0.99372687  0.41405782     0.08000
C87         C  0.26449530  0.97876938  0.45298810     0.01800
H88         H  0.32526579  0.04190236  0.40201020     0.09500
H89         H  0.24744368  0.94983889  0.45895271     0.08500
N90         N  0.41045379  0.07819844  0.53125175    -0.35300
N91         N  0.41263832  0.07433120  0.57256196    -0.27500
C92         C  0.45294077  0.07890736  0.58552916    -0.02700
C93         C  0.47746123  0.08566545  0.55057831     0.05900
C94         C  0.44933206  0.08529234  0.51674213     0.04000
H95         H  0.46398525  0.07385131  0.61748489     0.09100
H96         H  0.45698396  0.08635115  0.48376976     0.07900
O97         O  0.76036586  0.88358902  0.03590969    -0.72100
O98         O  0.75782740  0.01197724  0.02899725    -0.73100
O99         O  0.76043694  0.95098545  0.09583233    -0.61700
O100        O  0.75958088  0.94382466  0.96979008    -0.70100
O101        O  0.68988110  0.94420405  0.96882284    -0.69700
O102        O  0.69080945  0.94612328  0.09486248    -0.60900
O103        O  0.68830487  0.00846301  0.03093216    -0.73400
O104        O  0.69062641  0.88288883  0.03372823    -0.72200
Cu105      Cu  0.76209734  0.94778700  0.03257197     1.04600
Cu106      Cu  0.68758500  0.94551937  0.03190002     1.04300
C107        C  0.72541698  0.86331551  0.03640325     0.94100
C108        C  0.72208622  0.03030256  0.02979753     0.93200
C109        C  0.72577303  0.94818467  0.11521355     0.85400
C110        C  0.72466824  0.94259469  0.94944400     0.91600
N111        N  0.72951379  0.96108604  0.32721790    -0.02600
C112        C  0.70541195  0.94623480  0.29438699    -0.00100
C113        C  0.66416383  0.94118788  0.30648254    -0.22900
C114        C  0.66244620  0.95320465  0.34758253    -0.23100
C115        C  0.70252839  0.96552871  0.35972080    -0.00200
H116        H  0.63737463  0.93252172  0.28681930     0.13600
H117        H  0.63431345  0.95526533  0.36603407     0.13700
N118        N  0.70859229  0.21045410  0.04756194    -0.02600
C119        C  0.74018890  0.23488105  0.06392200    -0.00100
C120        C  0.72436541  0.27225339  0.07912127    -0.22900
C121        C  0.68193759  0.27132115  0.07135892    -0.23100
C122        C  0.67294517  0.23346081  0.05151821    -0.00200
H123        H  0.74230625  0.29890515  0.09117025     0.13600
H124        H  0.66064444  0.29742184  0.07548637     0.13700
O125        O  0.94067325  0.95724633  0.72222158    -0.72100
O126        O  0.06596521  0.95831182  0.72301068    -0.73100
O127        O  0.00231738  0.89465356  0.72778288    -0.61700
O128        O  0.00171256  0.02169417  0.71973293    -0.70100
O129        O  0.00407175  0.02495626  0.78952278    -0.69700
O130        O  0.00462758  0.89952354  0.79746348    -0.60900
O131        O  0.06867542  0.96319231  0.79252445    -0.73400
O132        O  0.93989473  0.96198596  0.79173940    -0.72200
Cu133      Cu  0.00293139  0.95792678  0.72081999     1.04600
Cu134      Cu  0.00450814  0.96261216  0.79529445     1.04300
C135        C  0.92021960  0.95904136  0.75621851     0.94100
C136        C  0.08740542  0.96036983  0.75730500     0.93200
C137        C  0.00233980  0.87728130  0.76410865     0.85400
C138        C  0.00149977  0.04308348  0.75383683     0.91600
N139        N  0.98917873  0.24929190  0.79289150    -0.02600
C140        C  0.97290633  0.22222971  0.76355585    -0.00100
C141        C  0.95397004  0.24459214  0.73110387    -0.22900
C142        C  0.95968324  0.28653685  0.74023321    -0.23100
C143        C  0.98198034  0.28881176  0.77791168    -0.00200
H144        H  0.94083567  0.23207670  0.70202610     0.13600
H145        H  0.95317596  0.31244170  0.71893739     0.13700
N146        N  0.26778163  0.94510758  0.75146105    -0.02600
C147        C  0.29168523  0.92831202  0.78311653    -0.00100
C148        C  0.32934705  0.91410856  0.76776672    -0.22900
C149        C  0.32904201  0.92291959  0.72561784    -0.23100
C150        C  0.29124319  0.94232601  0.71635536    -0.00200
H151        H  0.35589285  0.90254944  0.78605616     0.13600
H152        H  0.35558076  0.92018352  0.70504417     0.13700
O153        O  0.31230515  0.02256556  0.04532526    -0.72100
O154        O  0.31780452  0.89805803  0.04882211    -0.73100
O155        O  0.31619151  0.95829510  0.98343018    -0.61700
O156        O  0.31062135  0.96223015  0.10983536    -0.70100
O157        O  0.24115207  0.95737783  0.10547074    -0.69700
O158        O  0.24660421  0.95451617  0.97994723    -0.60900
O159        O  0.24845932  0.89198343  0.04373906    -0.73400
O160        O  0.24272019  0.02146806  0.04137474    -0.72200
Cu161      Cu  0.31648247  0.96044259  0.04685733     1.04600
Cu162      Cu  0.24214837  0.95630825  0.04237566     1.04300
C163        C  0.27753348  0.04213566  0.04412964     0.94100
C164        C  0.28487749  0.87505137  0.04709537     0.93200
C165        C  0.28197339  0.95489668  0.96184116     0.85400
C166        C  0.27488835  0.96038298  0.12759285     0.91600
O167        O  0.92994270  0.97574555  0.29165719    -0.72100
O168        O  0.05734029  0.98970935  0.29388425    -0.73100
O169        O  0.00000550  0.91977071  0.29277434    -0.61700
O170        O  0.98649794  0.04606174  0.29135772    -0.70100
O171        O  0.99090603  0.04691541  0.36102262    -0.69700
O172        O  0.99395668  0.92032023  0.36220523    -0.60900
O173        O  0.05595658  0.98532172  0.36339671    -0.73400
O174        O  0.92975148  0.98197852  0.36115056    -0.72200
Cu175      Cu  0.99354292  0.98291681  0.28989514     1.04600
Cu176      Cu  0.99280664  0.98373846  0.36431403     1.04300
C177        C  0.90992825  0.97737196  0.32618931     0.94100
C178        C  0.07675333  0.98799286  0.32950759     0.93200
C179        C  0.99762227  0.90010949  0.32770015     0.85400
C180        C  0.98655345  0.06641419  0.32602619     0.91600
O181        O  0.00573076  0.26647433  0.98712548    -0.72100
O182        O  0.99879919  0.28095258  0.11065112    -0.73100
O183        O  0.06518697  0.27551423  0.05340100    -0.61700
O184        O  0.93883791  0.26913472  0.04481628    -0.70100
O185        O  0.94154393  0.20013579  0.05600389    -0.69700
O186        O  0.06678490  0.20586052  0.05989414    -0.60900
O187        O  0.00360724  0.21189978  0.12076943    -0.73400
O188        O  0.00483862  0.19672160  0.99372104    -0.72200
Cu189      Cu  0.00202918  0.27536098  0.04864184     1.04600
Cu190      Cu  0.00430757  0.20113623  0.05777813     1.04300
C191        C  0.00589498  0.22988185  0.97064251     0.94100
C192        C  0.00071331  0.24939730  0.13545635     0.93200
C193        C  0.08586400  0.24131986  0.05841044     0.85400
C194        C  0.92022693  0.23357086  0.04988197     0.91600
N195        N  0.97769860  0.27593518  0.31148043    -0.02600
C196        C  0.95688796  0.24570266  0.33325735    -0.00100
C197        C  0.93978718  0.26294775  0.36886175    -0.22900
C198        C  0.95070104  0.30494198  0.36917597    -0.23100
C199        C  0.97441291  0.31219599  0.33388942    -0.00200
H200        H  0.92487302  0.24593704  0.39410397     0.13600
H201        H  0.94637688  0.32653754  0.39506855     0.13700
N202        N  0.25714027  0.97122464  0.34011609    -0.02600
C203        C  0.28136530  0.95650105  0.30854623    -0.00100
C204        C  0.31960540  0.94280898  0.32450890    -0.22900
C205        C  0.31965781  0.95023957  0.36684860    -0.23100
C206        C  0.28140886  0.96809676  0.37573232    -0.00200
H207        H  0.34594077  0.93167632  0.30669590     0.13600
H208        H  0.34630511  0.94686786  0.38821362     0.13700
N209        N  0.29489919  0.22269353  0.05841492    -0.02600
C210        C  0.26650207  0.24948614  0.07510575    -0.00100
C211        C  0.28622205  0.28600237  0.08900923    -0.22900
C212        C  0.32789762  0.28200672  0.08010406    -0.23100
C213        C  0.33249848  0.24317363  0.06103070    -0.00200
H214        H  0.27136937  0.31386509  0.10139806     0.13600
H215        H  0.35149022  0.30664434  0.08302698     0.13700
O216        O  0.01197394  0.72072007  0.12573471    -0.72100
O217        O  0.01182627  0.72025990  0.99824707    -0.73100
O218        O  0.94898454  0.71874763  0.06130335    -0.61700
O219        O  0.07554526  0.72289686  0.06408361    -0.70100
O220        O  0.07695590  0.65288022  0.06315887    -0.69700
O221        O  0.95202928  0.64885428  0.06122114    -0.60900
O222        O  0.01493935  0.65031760  0.99888161    -0.73400
O223        O  0.01568454  0.65079440  0.12566710    -0.72200
Cu224      Cu  0.01207344  0.72320336  0.06219328     1.04600
Cu225      Cu  0.01487352  0.64837996  0.06218012     1.04300
C226        C  0.01423594  0.68570421  0.14566415     0.94100
C227        C  0.01324761  0.68505261  0.97857243     0.93200
C228        C  0.93057935  0.68280833  0.06134640     0.85400
C229        C  0.09608019  0.68835686  0.06467104     0.91600
N230        N  0.01647335  0.68744535  0.32689754    -0.02600
C231        C  0.00294864  0.72057967  0.35035058    -0.00100
C232        C  0.99967610  0.70922589  0.39204579    -0.22900
C233        C  0.01187251  0.66813298  0.39494578    -0.23100
C234        C  0.02231495  0.65524596  0.35496057    -0.00200
H235        H  0.99142434  0.72938040  0.41803603     0.13600
H236        H  0.01459428  0.64995639  0.42368603     0.13700
N237        N  0.30583887  0.69719655  0.07283481    -0.02600
C238        C  0.27444590  0.67365764  0.08926014    -0.00100
C239        C  0.29007175  0.63639446  0.10549329    -0.22900
C240        C  0.33245807  0.63681803  0.09848389    -0.23100
C241        C  0.34141911  0.67426138  0.07806066    -0.00200
H242        H  0.27205289  0.61022685  0.11779600     0.13600
H243        H  0.35356855  0.61056590  0.10337319     0.13700
N244        N  0.99843480  0.66823977  0.79871825    -0.02600
C245        C  0.98157476  0.69661194  0.77104871    -0.00100
C246        C  0.96830269  0.67638435  0.73456961    -0.22900
C247        C  0.97731757  0.63455004  0.73964645    -0.23100
C248        C  0.99607863  0.63015986  0.77891612    -0.00200
H249        H  0.95668506  0.69076779  0.70580413     0.13600
H250        H  0.97446432  0.61053527  0.71553650     0.13700
N251        N  0.74035319  0.94002635  0.73934711    -0.02600
C252        C  0.71576181  0.92289777  0.76947447    -0.00100
C253        C  0.67872993  0.90757485  0.75177880    -0.22900
C254        C  0.67997082  0.91631739  0.70965717    -0.23100
C255        C  0.71769752  0.93672822  0.70281056    -0.00200
H256        H  0.65205906  0.89493355  0.76834742     0.13600
H257        H  0.65407870  0.91270732  0.68735675     0.13700
N258        N  0.71916405  0.68427647  0.06226445    -0.02600
C259        C  0.75144050  0.65956210  0.07575108    -0.00100
C260        C  0.73611333  0.62090584  0.08903844    -0.22900
C261        C  0.69340817  0.62151573  0.08257534    -0.23100
C262        C  0.68379829  0.66065136  0.06606698    -0.00200
H263        H  0.75429549  0.59411069  0.09976709     0.13600
H264        H  0.67214931  0.59498237  0.08598942     0.13700
N265        N  0.06130687  0.54187746  0.76110439    -0.26500
N266        N  0.03395661  0.52405199  0.78646215    -0.34300
C267        C  0.00970894  0.55455902  0.80274041     0.01900
C268        C  0.02302094  0.59345270  0.78762221     0.07900
C269        C  0.05592781  0.58376863  0.76160091    -0.05200
H270        H  0.98126844  0.54848287  0.81985593     0.08600
H271        H  0.06984304  0.60494761  0.73898772     0.09800
Cu272      Cu  0.02594673  0.45858261  0.79034057     0.44200
Cu273      Cu  0.09210419  0.51073093  0.71341395     0.42000
Cu274      Cu  0.08700639  0.40147324  0.71163647     0.43900
N275        N  0.02784748  0.39283086  0.78482341    -0.33800
N276        N  0.05357388  0.37314442  0.75932401    -0.28100
C277        C  0.04446712  0.33184198  0.75935466    -0.04200
C278        C  0.01076195  0.32466962  0.78511726     0.08000
C279        C  0.00080589  0.36418663  0.80064667     0.01800
H280        H  0.05677554  0.30970918  0.73687220     0.09500
H281        H  0.97319970  0.37216323  0.81820570     0.08500
N282        N  0.10153270  0.43543887  0.65807059    -0.35300
N283        N  0.10385501  0.47699257  0.65898232    -0.27500
C284        C  0.10783340  0.49153973  0.61947978    -0.02700
C285        C  0.10778441  0.45740826  0.59222373     0.05900
C286        C  0.10377416  0.42225090  0.61788350     0.04000
H287        H  0.10798790  0.52458948  0.61100766     0.09100
H288        H  0.10028116  0.38976620  0.60791453     0.07900
N289        N  0.07179278  0.55694311  0.37757453    -0.26500
N290        N  0.04480653  0.54381431  0.34821373    -0.34300
C291        C  0.02654687  0.57802365  0.33021088     0.01900
C292        C  0.04340621  0.61427353  0.34881840     0.07900
C293        C  0.07226709  0.59916630  0.37816903    -0.05200
H294        H  0.99961055  0.57653642  0.30900740     0.08600
H295        H  0.08748236  0.61748353  0.40285468     0.09800
Cu296      Cu  0.03034407  0.47946774  0.34050942     0.44200
Cu297      Cu  0.09481465  0.52051012  0.42710733     0.42000
Cu298      Cu  0.08099296  0.41213461  0.42226729     0.43900
N299        N  0.02707452  0.41321566  0.34216959    -0.33800
N300        N  0.04873534  0.38985853  0.36932968    -0.28100
C301        C  0.03713148  0.34935358  0.36472855    -0.04200
C302        C  0.00605105  0.34642140  0.33392696     0.08000
C303        C  0.00023523  0.38773048  0.32049234     0.01800
H304        H  0.04593347  0.32468661  0.38667847     0.09500
H305        H  0.97534079  0.39898488  0.29988480     0.08500
N306        N  0.09765496  0.44163625  0.47850482    -0.35300
N307        N  0.10268037  0.48294758  0.48021629    -0.27500
C308        C  0.10833965  0.49468741  0.52061630    -0.02700
C309        C  0.10685252  0.45892484  0.54568678     0.05900
C310        C  0.10005142  0.42577566  0.51782749     0.04000
H311        H  0.11137586  0.52704342  0.53109149     0.09100
H312        H  0.09508219  0.39292906  0.52569592     0.07900
C313        C  0.20799879  0.71436137  0.09871282    -0.20500
C314        C  0.22930379  0.68025687  0.08111162    -0.08500
C315        C  0.20714747  0.65109227  0.05582702     0.30300
C316        C  0.16404388  0.65507154  0.04948357    -0.20500
C317        C  0.14224153  0.68839324  0.06785678    -0.08500
C318        C  0.16459991  0.71863644  0.09196737     0.30300
F319        F  0.14426553  0.75079614  0.11080891    -0.19100
H320        H  0.22484426  0.73708368  0.11826474     0.18700
H321        H  0.14749639  0.63161953  0.03054335     0.18700
F322        F  0.22728215  0.61851915  0.03740749    -0.19000
C323        C  0.98319412  0.70432975  0.25829602    -0.20500
C324        C  0.01657490  0.68591482  0.28132742    -0.08500
C325        C  0.04939328  0.66721180  0.25898740     0.30300
C326        C  0.04808893  0.66642136  0.21477873    -0.20500
C327        C  0.01497398  0.68556829  0.19216450    -0.08500
C328        C  0.98268195  0.70483459  0.21432993     0.30300
F329        F  0.95004479  0.72322537  0.19341819    -0.19100
H330        H  0.95722389  0.71840107  0.27453563     0.18700
H331        H  0.07359585  0.65193456  0.19811069     0.18700
F332        F  0.08350040  0.65140398  0.27953831    -0.19000
C333        C  0.81603098  0.70560323  0.08377417    -0.20500
C334        C  0.79680693  0.66793104  0.07001021    -0.08500
C335        C  0.82155690  0.63677726  0.05128019     0.30300
C336        C  0.86469547  0.64254901  0.04779078    -0.20500
C337        C  0.88425523  0.67970864  0.06219282    -0.08500
C338        C  0.85938969  0.71183336  0.07932652     0.30300
F339        F  0.87709217  0.74840123  0.09335534    -0.19100
H340        H  0.79767653  0.72983929  0.09864135     0.18700
H341        H  0.88293259  0.61761823  0.03387528     0.18700
F342        F  0.80401774  0.60056337  0.03608656    -0.19000
C343        C  0.97382356  0.69639863  0.86614854    -0.20500
C344        C  0.00469336  0.67500706  0.84348135    -0.08500
C345        C  0.04007009  0.65942458  0.86557631     0.30300
C346        C  0.04308304  0.66326111  0.90955525    -0.20500
C347        C  0.01172432  0.68399634  0.93202644    -0.08500
C348        C  0.97742157  0.70123130  0.90982467     0.30300
F349        F  0.94622794  0.72074934  0.93065596    -0.19100
H350        H  0.94619946  0.70847581  0.84998101     0.18700
H351        H  0.07003047  0.65019149  0.92613448     0.18700
F352        F  0.07206338  0.64136105  0.84478008    -0.19000
C353        C  0.19824762  0.21186315  0.08708315    -0.20500
C354        C  0.22038623  0.24613594  0.07045678    -0.08500
C355        C  0.19809351  0.27882591  0.05023598     0.30300
C356        C  0.15442625  0.27712686  0.04666453    -0.20500
C357        C  0.13211831  0.24265055  0.06274274    -0.08500
C358        C  0.15442861  0.20988559  0.08307922     0.30300
F359        F  0.13390372  0.17653706  0.10013472    -0.19100
H360        H  0.21483552  0.18688743  0.10350652     0.18700
H361        H  0.13808618  0.30260863  0.03078176     0.18700
F362        F  0.21865321  0.31224758  0.03329472    -0.19000
C363        C  0.01339671  0.23804467  0.25409422    -0.20500
C364        C  0.98998598  0.27261879  0.26815106    -0.08500
C365        C  0.97309525  0.30073610  0.23820828     0.30300
C366        C  0.97782629  0.29331983  0.19536842    -0.20500
C367        C  0.99867561  0.25725392  0.18121415    -0.08500
C368        C  0.01710231  0.22989902  0.21098898     0.30300
F369        F  0.03853633  0.19537283  0.19851358    -0.19100
H370        H  0.02757649  0.21647684  0.27651161     0.18700
H371        H  0.96341436  0.31499473  0.17312908     0.18700
F372        F  0.94929963  0.33378792  0.25022368    -0.19000
C373        C  0.14237988  0.96171346  0.36376882    -0.20500
C374        C  0.12347289  0.98659877  0.33228475    -0.08500
C375        C  0.14954199  0.00809967  0.30390898     0.30300
C376        C  0.19359685  0.00448694  0.30731008    -0.20500
C377        C  0.21227122  0.97869369  0.33841786    -0.08500
C378        C  0.18594586  0.95720417  0.36641357     0.30300
F379        F  0.20218862  0.92959485  0.39483436    -0.19100
H380        H  0.12317057  0.94414093  0.38551884     0.18700
H381        H  0.21309022  0.02143827  0.28540557     0.18700
F382        F  0.13255558  0.03292372  0.27335067    -0.19000
C383        C  0.95559246  0.13217224  0.29461929    -0.20500
C384        C  0.98052327  0.11264978  0.32601525    -0.08500
C385        C  0.99781703  0.13744078  0.35870518     0.30300
C386        C  0.98982373  0.18057752  0.36026987    -0.20500
C387        C  0.96439672  0.19994189  0.32951802    -0.08500
C388        C  0.94723339  0.17555689  0.29650294     0.30300
F389        F  0.92221059  0.19353648  0.26656714    -0.19100
H390        H  0.94165935  0.11362717  0.26931319     0.18700
H391        H  0.00365187  0.19911203  0.38566991     0.18700
F392        F  0.02293275  0.12010829  0.38894857    -0.19000
C393        C  0.96446471  0.83264482  0.34833177    -0.20500
C394        C  0.99737604  0.85365031  0.32839688    -0.08500
C395        C  0.02976828  0.83000659  0.31061566     0.30300
C396        C  0.03016595  0.78589419  0.31497718    -0.20500
C397        C  0.99802654  0.76506599  0.33666824    -0.08500
C398        C  0.96447318  0.78879896  0.35208175     0.30300
F399        F  0.93230091  0.76957438  0.37211575    -0.19100
H400        H  0.93889817  0.85037881  0.36153700     0.18700
H401        H  0.05669673  0.76832816  0.30358244     0.18700
F402        F  0.06230106  0.84973653  0.29165615    -0.19000
C403        C  0.25326582  0.11561850  0.02395931    -0.20500
C404        C  0.27937656  0.08883212  0.04796342    -0.08500
C405        C  0.31037233  0.10703386  0.07459892     0.30300
C406        C  0.31534468  0.15068190  0.07692799    -0.20500
C407        C  0.28983477  0.17764559  0.05284201    -0.08500
C408        C  0.25872500  0.15979867  0.02599497     0.30300
F409        F  0.23428997  0.18489845  0.00130394    -0.19100
H410        H  0.22961921  0.10236243  0.00283251     0.18700
H411        H  0.33892530  0.16369714  0.09828138     0.18700
F412        F  0.33562656  0.08251369  0.09917718    -0.19000
C413        C  0.30450858  0.98412633  0.19634301    -0.20500
C414        C  0.27287877  0.96229242  0.17400594    -0.08500
C415        C  0.24062810  0.94212434  0.19651078     0.30300
C416        C  0.24172279  0.94194912  0.24072369    -0.20500
C417        C  0.27446244  0.96254553  0.26278647    -0.08500
C418        C  0.30514931  0.98460470  0.24012705     0.30300
F419        F  0.33674449  0.00569329  0.26049545    -0.19100
H420        H  0.32909234  0.00055557  0.17987828     0.18700
H421        H  0.21818276  0.92440507  0.25758226     0.18700
F422        F  0.20944605  0.92066416  0.17594903    -0.19000
C423        C  0.27136045  0.75611261  0.03396086    -0.20500
C424        C  0.30332068  0.74119510  0.06126861    -0.08500
C425        C  0.32970611  0.77060374  0.08182092     0.30300
C426        C  0.32350877  0.81374215  0.07625587    -0.20500
C427        C  0.29035972  0.82882971  0.05077270    -0.08500
C428        C  0.26449186  0.79962720  0.02911586     0.30300
F429        F  0.23308860  0.81306671  0.00306349    -0.19100
H430        H  0.25101299  0.73401065  0.01725955     0.18700
H431        H  0.34393260  0.83556602  0.09329996     0.18700
F432        F  0.35985223  0.75764974  0.10954881    -0.19000
C433        C  0.31714592  0.96147321  0.84925105    -0.20500
C434        C  0.28664121  0.93653244  0.82836613    -0.08500
C435        C  0.25394636  0.91853547  0.85133156     0.30300
C436        C  0.25193854  0.92567084  0.89470543    -0.20500
C437        C  0.28303384  0.94999406  0.91574074    -0.08500
C438        C  0.31558337  0.96804975  0.89251995     0.30300
F439        F  0.34564518  0.99237057  0.91150819    -0.19100
H440        H  0.34257281  0.97567087  0.83188654     0.18700
H441        H  0.22680108  0.91105787  0.91211754     0.18700
F442        F  0.22487748  0.89320859  0.83214765    -0.19000
C443        C  0.96860043  0.21389556  0.85865488    -0.20500
C444        C  0.99729429  0.23932071  0.83670562    -0.08500
C445        C  0.03220211  0.25625677  0.85878600     0.30300
C446        C  0.03610377  0.25090624  0.90234500    -0.20500
C447        C  0.00625145  0.22731629  0.92442086    -0.08500
C448        C  0.97316916  0.20761862  0.90209425     0.30300
F449        F  0.94347552  0.18522733  0.92272937    -0.19100
H450        H  0.94155651  0.20038362  0.84233528     0.18700
H451        H  0.06201867  0.26605981  0.91913114     0.18700
F452        F  0.06265354  0.27769753  0.83842845    -0.19000
C453        C  0.16002319  0.98078040  0.78409713    -0.20500
C454        C  0.13406535  0.95829377  0.75551182    -0.08500
C455        C  0.15314405  0.93371812  0.72442004     0.30300
C456        C  0.19687123  0.93072972  0.72289903    -0.20500
C457        C  0.22293555  0.95250186  0.75176664    -0.08500
C458        C  0.20408833  0.97854035  0.78184359     0.30300
F459        F  0.22811597  0.00226085  0.80852365    -0.19100
H460        H  0.14616806  0.00062486  0.80775461     0.18700
H461        H  0.21056361  0.91022910  0.69970468     0.18700
F462        F  0.12949074  0.91107172  0.69640456    -0.19000
C463        C  0.02434212  0.11468817  0.77589444    -0.20500
C464        C  0.99630527  0.08897913  0.75297141    -0.08500
C465        C  0.96069186  0.10686682  0.73371126     0.30300
C466        C  0.95263495  0.14986019  0.73860362    -0.20500
C467        C  0.98061434  0.17599738  0.76168725    -0.08500
C468        C  0.01737239  0.15798928  0.77924553     0.30300
F469        F  0.04767244  0.18206171  0.79799026    -0.19100
H470        H  0.05204518  0.10120891  0.79074729     0.18700
H471        H  0.92431591  0.16263167  0.72437962     0.18700
F472        F  0.93275152  0.08243000  0.71180936    -0.19000
C473        C  0.96152106  0.81225606  0.74925992    -0.20500
C474        C  0.99705895  0.83134352  0.76773504    -0.08500
C475        C  0.02555641  0.80664394  0.79110744     0.30300
C476        C  0.01962838  0.76285835  0.79376592    -0.20500
C477        C  0.98445509  0.74338641  0.77433937    -0.08500
C478        C  0.95477659  0.76888848  0.75308395     0.30300
F479        F  0.91920499  0.75193807  0.73577830    -0.19100
H480        H  0.93856314  0.83117246  0.73229146     0.18700
H481        H  0.04342359  0.74412257  0.80962739     0.18700
F482        F  0.05995362  0.82461186  0.80975948    -0.19000
C483        C  0.80280266  0.97281465  0.77567331    -0.20500
C484        C  0.78510181  0.94840239  0.74270232    -0.08500
C485        C  0.81229758  0.92868749  0.71459099     0.30300
C486        C  0.85572303  0.93287608  0.71947356    -0.20500
C487        C  0.87363918  0.95606863  0.75297225    -0.08500
C488        C  0.84673841  0.97622007  0.78116514     0.30300
F489        F  0.86278683  0.99971983  0.81337871    -0.19100
H490        H  0.78263705  0.98883042  0.79742924     0.18700
H491        H  0.87555107  0.91675869  0.69740670     0.18700
F492        F  0.79695197  0.90340849  0.68342615    -0.19000
C493        C  0.80583049  0.26154552  0.03305143    -0.20500
C494        C  0.78552584  0.23002844  0.05630498    -0.08500
C495        C  0.80946455  0.19794516  0.07516656     0.30300
C496        C  0.85329622  0.19828448  0.07153559    -0.20500
C497        C  0.87377674  0.23107395  0.04982298    -0.08500
C498        C  0.84942854  0.26226815  0.02986496     0.30300
F499        F  0.86768248  0.29375781  0.00759853    -0.19100
H500        H  0.78776697  0.28650392  0.01820000     0.18700
H501        H  0.87136310  0.17388148  0.08725589     0.18700
F502        F  0.79079795  0.16762204  0.09862139    -0.19000
C503        C  0.83918173  0.00506123  0.34452861    -0.20500
C504        C  0.86358962  0.97353042  0.32612391    -0.08500
C505        C  0.84345636  0.93778556  0.30901421     0.30300
C506        C  0.79968162  0.93365305  0.31053205    -0.20500
C507        C  0.77488911  0.96551484  0.32811322    -0.08500
C508        C  0.79518939  0.00158012  0.34487602     0.30300
F509        F  0.77268834  0.03428494  0.35980593    -0.19100
H510        H  0.85421837  0.03296402  0.35770862     0.18700
H511        H  0.78492575  0.90545585  0.29775846     0.18700
F512        F  0.86624824  0.90629492  0.29195649    -0.19000
C513        C  0.68657938  0.09446540  0.05533969    -0.20500
C514        C  0.71873379  0.07694206  0.03153992    -0.08500
C515        C  0.74652104  0.10424712  0.01068777     0.30300
C516        C  0.74191013  0.14828563  0.01392961    -0.20500
C517        C  0.71039580  0.16564989  0.03901479    -0.08500
C518        C  0.68284356  0.13803633  0.05966104     0.30300
F519        F  0.65390143  0.15307824  0.08642043    -0.19100
H520        H  0.66513329  0.07421817  0.07222220     0.18700
H521        H  0.76341948  0.16879899  0.99753793     0.18700
F522        F  0.77768757  0.08846138  0.98695166    -0.19000
C523        C  0.74422477  0.97250357  0.23091605    -0.20500
C524        C  0.71764119  0.94247215  0.24959937    -0.08500
C525        C  0.69725568  0.91233518  0.22363875     0.30300
C526        C  0.70062660  0.91441286  0.18008712    -0.20500
C527        C  0.72563360  0.94539549  0.16141517    -0.08500
C528        C  0.74887472  0.97345231  0.18712226     0.30300
F529        F  0.77380489  0.00341983  0.16979449    -0.19100
H530        H  0.75968492  0.99659824  0.24978538     0.18700
H531        H  0.68335992  0.89183822  0.16077181     0.18700
F532        F  0.67291661  0.88144419  0.24025425    -0.19000
C533        C  0.69114284  0.95658182  0.87978837    -0.20500
C534        C  0.72435334  0.93898997  0.90321614    -0.08500
C535        C  0.75615387  0.91715770  0.88214826     0.30300
C536        C  0.75397216  0.91235246  0.83837127    -0.20500
C537        C  0.72055585  0.92987765  0.81517427    -0.08500
C538        C  0.68936036  0.95239820  0.83620543     0.30300
F539        F  0.65694960  0.97031719  0.81449115    -0.19100
H540        H  0.66653723  0.97374738  0.89525696     0.18700
H541        H  0.77787014  0.89440352  0.82267892     0.18700
F542        F  0.78827188  0.89891760  0.90396739    -0.19000
C543        C  0.74950395  0.79036339  0.01807788    -0.20500
C544        C  0.72427607  0.81710279  0.04194925    -0.08500
C545        C  0.69645468  0.79933576  0.07092188     0.30300
C546        C  0.69477296  0.75576438  0.07670560    -0.20500
C547        C  0.72012261  0.72886639  0.05330098    -0.08500
C548        C  0.74687133  0.74638066  0.02309600     0.30300
F549        F  0.77002519  0.72104138  0.99834993    -0.19100
H550        H  0.77046944  0.80348813  0.99500351     0.18700
H551        H  0.67416973  0.74285563  0.10020293     0.18700
F552        F  0.67180766  0.82427381  0.09470225    -0.19000
loop_ 
_geom_bond_atom_site_label_1 
_geom_bond_atom_site_label_2 
_geom_bond_distance 
_geom_bond_site_symmetry_2 
_ccdc_geom_bond_type 
N1            N2   1.323       .  A
N1            C5   1.339       .  A
N1           Cu9   2.068   1_554  S
N2            C3   1.349       .  A
N2           Cu8   2.087       .  S
C3            C4   1.386       .  A
C3            H6   1.082       .  S
C4            C5   1.379       .  A
C4          C262   1.469       .  S
C5            H7   1.083   1_554  S
Cu8          N11   2.087       .  S
Cu9          N19   2.070       .  S
Cu10         N12   2.073   1_556  S
Cu10         N18   2.074       .  S
N11          N12   1.322       .  A
N11          C15   1.350       .  A
N12          C13   1.340       .  A
C13          C14   1.382       .  A
C13          H16   1.082       .  S
C14          C15   1.388       .  A
C14         C241   1.471       .  S
C15          H17   1.081       .  S
N18          N19   1.319       .  A
N18          C22   1.346       .  A
N19          C20   1.347       .  A
C20          C21   1.386       .  A
C20          H23   1.082       .  S
C21          C22   1.386       .  A
C21          C45   1.478       .  S
C22          H24   1.081       .  S
N25          N26   1.323   1_556  A
N25          C29   1.341       .  A
N25         Cu33   2.077       .  S
N26          C27   1.350       .  A
N26         Cu32   2.094       .  S
C27          C28   1.389       .  A
C27          H30   1.081       .  S
C28          C29   1.384   1_554  A
C28         C122   1.475       .  S
C29          H31   1.083       .  S
Cu32         N35   2.093       .  S
Cu33         N43   2.077       .  S
Cu34         N36   2.071       .  S
Cu34         N42   2.072       .  S
N35          N36   1.322   1_554  A
N35          C39   1.351       .  A
N36          C37   1.339       .  A
C37          C38   1.382   1_556  A
C37          H40   1.082       .  S
C38          C39   1.389       .  A
C38         C213   1.473       .  S
C39          H41   1.081       .  S
N42          N43   1.319       .  A
N42          C46   1.346       .  A
N43          C44   1.348       .  A
C44          C45   1.387       .  A
C44          H47   1.082       .  S
C45          C46   1.385       .  A
C46          H48   1.082       .  S
N49          N50   1.323   1_545  A
N49          C53   1.341       .  A
N49         Cu57   2.077       .  S
N50          C51   1.349       .  A
N50         Cu56   2.089       .  S
C51          C52   1.387       .  A
C51          H54   1.082       .  S
C52          C53   1.383   1_565  A
C52         C255   1.471       .  S
C53          H55   1.083       .  S
Cu56         N59   2.088       .  S
Cu57         N67   2.076       .  S
Cu58         N60   2.079       .  S
Cu58         N66   2.079       .  S
N59          N60   1.322   1_565  A
N59          C63   1.352       .  A
N60          C61   1.339       .  A
C61          C62   1.385   1_545  A
C61          H64   1.082       .  S
C62          C63   1.389       .  A
C62         C115   1.474       .  S
C63          H65   1.082       .  S
N66          N67   1.319       .  A
N66          C70   1.347       .  A
N67          C68   1.347       .  A
C68          C69   1.387       .  A
C68          H71   1.082       .  S
C69          C70   1.387       .  A
C69          C93   1.480       .  S
C70          H72   1.081       .  S
N73          N74   1.323   1_545  A
N73          C77   1.340       .  A
N73         Cu81   2.076       .  S
N74          C75   1.350       .  A
N74         Cu80   2.085       .  S
C75          C76   1.386       .  A
C75          H78   1.082       .  S
C76          C77   1.382   1_565  A
C76         C150   1.471       .  S
C77          H79   1.083       .  S
Cu80         N83   2.086   1_565  S
Cu81         N91   2.076       .  S
Cu82         N84   2.081       .  S
Cu82         N90   2.081       .  S
N83          N84   1.322       .  A
N83          C87   1.349   1_545  A
N84          C85   1.342       .  A
C85          C86   1.386   1_545  A
C85          H88   1.083       .  S
C86          C87   1.389       .  A
C86         C206   1.475       .  S
C87          H89   1.081       .  S
N90          N91   1.320       .  A
N90          C94   1.347       .  A
N91          C92   1.347       .  A
C92          C93   1.387       .  A
C92          H95   1.081       .  S
C93          C94   1.387       .  A
C94          H96   1.082       .  S
O97        Cu105   2.038       .  S
O97         C107   1.281       .  A
O98        Cu105   2.043   1_545  S
O98         C108   1.282       .  A
O99        Cu105   2.017       .  S
O99         C109   1.277       .  A
O100       Cu105   2.001   1_556  S
O100        C110   1.276       .  A
O101       Cu106   2.010   1_556  S
O101        C110   1.279       .  A
O102       Cu106   2.003       .  S
O102        C109   1.278       .  A
O103       Cu106   1.995   1_545  S
O103        C108   1.276       .  A
O104       Cu106   1.989       .  S
O104        C107   1.275       .  A
Cu105      Cu106   2.373       .  S
C107        C544   1.475       .  S
C108        C514   1.484       .  S
C109        C527   1.472       .  S
C110        C534   1.475       .  S
N111        C115   1.365       .  A
N111        C112   1.366       .  A
N111        C507   1.450       .  S
C112        C113   1.384       .  A
C112        C524   1.489       .  S
C113        C114   1.364       .  A
C113        H116   1.082       .  S
C114        C115   1.380       .  A
C114        H117   1.083       .  S
N118        C122   1.361       .  A
N118        C119   1.361       .  A
N118        C517   1.448       .  S
C119        C120   1.382       .  A
C119        C494   1.477       .  S
C120        C121   1.369       .  A
C120        H123   1.083       .  S
C121        C122   1.382       .  A
C121        H124   1.083       .  S
O125       Cu133   1.984   1_655  S
O125        C135   1.275       .  A
O126       Cu133   2.007       .  S
O126        C136   1.277       .  A
O127       Cu133   2.017       .  S
O127        C137   1.280       .  A
O128       Cu133   2.022   1_545  S
O128        C138   1.280       .  A
O129       Cu134   1.984   1_545  S
O129        C138   1.273       .  A
O130       Cu134   2.001       .  S
O130        C137   1.275       .  A
O131       Cu134   2.047       .  S
O131        C136   1.283       .  A
O132       Cu134   2.058   1_655  S
O132        C135   1.284       .  A
Cu133      Cu134   2.373       .  S
C135        C487   1.487       .  S
C136        C454   1.490       .  S
C137        C474   1.469   1_455  S
C138        C464   1.465   1_455  S
N139        C143   1.359       .  A
N139        C140   1.360       .  A
N139        C444   1.448       .  S
C140        C141   1.383       .  A
C140        C467   1.489       .  S
C141        C142   1.371       .  A
C141        H144   1.082       .  S
C142        C143   1.383       .  A
C142        H145   1.083       .  S
C143        C278   1.470   1_655  S
N146        C150   1.359       .  A
N146        C147   1.361       .  A
N146        C457   1.449       .  S
C147        C148   1.382       .  A
C147        C434   1.475       .  S
C148        C149   1.369       .  A
C148        H151   1.083       .  S
C149        C150   1.382       .  A
C149        H152   1.083       .  S
O153       Cu161   1.975   1_545  S
O153        C163   1.273       .  A
O154       Cu161   1.979       .  S
O154        C164   1.273       .  A
O155       Cu161   2.019   1_556  S
O155        C165   1.281       .  A
O156       Cu161   2.016       .  S
O156        C166   1.281       .  A
O157       Cu162   2.008       .  S
O157        C166   1.276       .  A
O158       Cu162   1.994   1_556  S
O158        C165   1.275       .  A
O159       Cu162   2.050       .  S
O159        C164   1.284       .  A
O160       Cu162   2.065   1_545  S
O160        C163   1.285       .  A
Cu161      Cu162   2.371       .  S
C163        C404   1.486       .  S
C164        C427   1.481       .  S
C165        C437   1.476       .  S
C166        C414   1.480       .  S
O167       Cu175   2.038       .  S
O167        C177   1.282       .  A
O168       Cu175   2.043   1_455  S
O168        C178   1.282       .  A
O169       Cu175   2.015   1_455  S
O169        C179   1.277   1_455  A
O170       Cu175   2.016   1_545  S
O170        C180   1.278       .  A
O171       Cu176   2.006   1_545  S
O171        C180   1.279       .  A
O172       Cu176   2.012       .  S
O172        C179   1.279       .  A
O173       Cu176   2.012   1_455  S
O173        C178   1.278       .  A
O174       Cu176   2.009       .  S
O174        C177   1.276       .  A
Cu175      Cu176   2.368       .  S
C177        C504   1.480       .  S
C178        C374   1.489       .  S
C179        C394   1.472       .  S
C180        C384   1.479       .  S
O181       Cu189   1.983   1_556  S
O181        C191   1.273       .  A
O182       Cu189   1.985   1_655  S
O182        C192   1.275   1_655  A
O183       Cu189   2.014       .  S
O183        C193   1.280       .  A
O184       Cu189   2.022   1_655  S
O184        C194   1.281       .  A
O185       Cu190   1.998   1_655  S
O185        C194   1.275       .  A
O186       Cu190   1.994       .  S
O186        C193   1.275       .  A
O187       Cu190   2.033       .  S
O187        C192   1.282       .  A
O188       Cu190   2.043   1_556  S
O188        C191   1.282       .  A
Cu189      Cu190   2.371       .  S
C191        C447   1.473       .  S
C192        C367   1.479   1_455  S
C193        C357   1.477       .  S
C194        C497   1.481       .  S
N195        C199   1.358       .  A
N195        C196   1.358       .  A
N195        C364   1.444       .  S
C196        C197   1.381       .  A
C196        C387   1.477       .  S
C197        C198   1.373       .  A
C197        H200   1.082       .  S
C198        C199   1.383       .  A
C198        H201   1.083       .  S
C199        C302   1.475   1_655  S
N202        C206   1.363       .  A
N202        C203   1.363       .  A
N202        C377   1.450       .  S
C203        C204   1.383       .  A
C203        C417   1.480       .  S
C204        C205   1.367       .  A
C204        H207   1.082       .  S
C205        C206   1.381       .  A
C205        H208   1.083       .  S
N209        C213   1.359       .  A
N209        C210   1.360       .  A
N209        C407   1.446       .  S
C210        C211   1.382       .  A
C210        C354   1.476       .  S
C211        C212   1.369       .  A
C211        H214   1.083       .  S
C212        C213   1.382       .  A
C212        H215   1.083       .  S
O216       Cu224   2.023       .  S
O216        C226   1.280       .  A
O217       Cu224   2.036   1_556  S
O217        C227   1.281       .  A
O218       Cu224   2.012   1_655  S
O218        C228   1.277       .  A
O219       Cu224   2.021       .  S
O219        C229   1.279       .  A
O220       Cu225   1.981       .  S
O220        C229   1.275       .  A
O221       Cu225   2.001   1_655  S
O221        C228   1.279       .  A
O222       Cu225   2.014   1_556  S
O222        C227   1.277       .  A
O223       Cu225   2.021       .  S
O223        C226   1.278       .  A
Cu224      Cu225   2.374       .  S
C226        C327   1.479       .  S
C227        C347   1.481       .  S
C228        C337   1.478       .  S
C229        C317   1.471       .  S
N230        C234   1.367       .  A
N230        C231   1.365       .  A
N230        C324   1.450       .  S
C231        C232   1.380   1_455  A
C231        C397   1.484   1_455  S
C232        C233   1.364   1_655  A
C232        H235   1.082       .  S
C233        C234   1.383       .  A
C233        H236   1.083       .  S
C234        C292   1.481       .  S
N237        C241   1.358       .  A
N237        C238   1.356       .  A
N237        C424   1.444       .  S
C238        C239   1.381       .  A
C238        C314   1.472       .  S
C239        C240   1.372       .  A
C239        H242   1.083       .  S
C240        C241   1.383       .  A
C240        H243   1.082       .  S
N244        C248   1.363       .  A
N244        C245   1.363       .  A
N244        C344   1.450   1_655  S
C245        C246   1.383       .  A
C245        C477   1.488       .  S
C246        C247   1.367       .  A
C246        H249   1.082       .  S
C247        C248   1.381       .  A
C247        H250   1.083       .  S
C248        C268   1.473   1_655  S
N251        C255   1.360       .  A
N251        C252   1.360       .  A
N251        C484   1.449       .  S
C252        C253   1.382       .  A
C252        C537   1.475       .  S
C253        C254   1.369       .  A
C253        H256   1.083       .  S
C254        C255   1.381       .  A
C254        H257   1.083       .  S
N258        C262   1.355       .  A
N258        C259   1.359       .  A
N258        C547   1.442       .  S
C259        C260   1.385       .  A
C259        C334   1.482       .  S
C260        C261   1.372       .  A
C260        H263   1.082       .  S
C261        C262   1.381       .  A
C261        H264   1.083       .  S
N265        N266   1.322       .  A
N265        C269   1.340       .  A
N265       Cu273   2.076       .  S
N266        C267   1.351       .  A
N266       Cu272   2.093       .  S
C267        C268   1.389       .  A
C267        H270   1.082   1_455  S
C268        C269   1.384       .  A
C269        H271   1.083       .  S
Cu272       N275   2.093       .  S
Cu273       N283   2.077       .  S
Cu274       N276   2.071       .  S
Cu274       N282   2.073       .  S
N275        N276   1.323       .  A
N275        C279   1.351       .  A
N276        C277   1.339       .  A
C277        C278   1.380       .  A
C277        H280   1.083       .  S
C278        C279   1.387       .  A
C279        H281   1.082   1_455  S
N282        N283   1.319       .  A
N282        C286   1.348       .  A
N283        C284   1.346       .  A
C284        C285   1.387       .  A
C284        H287   1.081       .  S
C285        C286   1.387       .  A
C285        C309   1.481       .  S
C286        H288   1.082       .  S
N289        N290   1.322       .  A
N289        C293   1.338       .  A
N289       Cu297   2.078       .  S
N290        C291   1.355       .  A
N290       Cu296   2.101       .  S
C291        C292   1.392       .  A
C291        H294   1.082   1_455  S
C292        C293   1.385       .  A
C293        H295   1.082       .  S
Cu296       N299   2.102       .  S
Cu297       N307   2.078       .  S
Cu298       N300   2.077       .  S
Cu298       N306   2.077       .  S
N299        N300   1.324       .  A
N299        C303   1.351       .  A
N300        C301   1.341       .  A
C301        C302   1.382       .  A
C301        H304   1.083       .  S
C302        C303   1.389       .  A
C303        H305   1.081   1_455  S
N306        N307   1.319       .  A
N306        C310   1.349       .  A
N307        C308   1.346       .  A
C308        C309   1.387       .  A
C308        H311   1.081       .  S
C309        C310   1.388       .  A
C310        H312   1.082       .  S
C313        C314   1.403       .  A
C313        C318   1.402       .  A
C313        H320   1.084       .  S
C314        C315   1.403       .  A
C315        C316   1.390       .  A
C315        F322   1.358       .  S
C316        C317   1.402       .  A
C316        H321   1.084       .  S
C317        C318   1.408       .  A
C318        F319   1.357       .  S
C323        C324   1.409   1_655  A
C323        C328   1.398       .  A
C323        H330   1.082       .  S
C324        C325   1.409       .  A
C325        C326   1.406       .  A
C325        F332   1.355       .  S
C326        C327   1.406       .  A
C326        H331   1.083       .  S
C327        C328   1.402   1_455  A
C328        F329   1.358       .  S
C333        C334   1.404       .  A
C333        C338   1.403       .  A
C333        H340   1.083       .  S
C334        C335   1.407       .  A
C335        C336   1.391       .  A
C335        F342   1.358       .  S
C336        C337   1.401       .  A
C336        H341   1.084       .  S
C337        C338   1.410       .  A
C338        F339   1.357       .  S
C343        C344   1.408   1_655  A
C343        C348   1.400       .  A
C343        H350   1.082       .  S
C344        C345   1.408       .  A
C345        C346   1.406       .  A
C345        F352   1.356       .  S
C346        C347   1.406       .  A
C346        H351   1.083       .  S
C347        C348   1.403   1_455  A
C348        F349   1.357       .  S
C353        C354   1.400       .  A
C353        C358   1.400       .  A
C353        H360   1.083       .  S
C354        C355   1.408       .  A
C355        C356   1.394       .  A
C355        F362   1.358       .  S
C356        C357   1.401       .  A
C356        H361   1.083       .  S
C357        C358   1.412       .  A
C358        F359   1.357       .  S
C363        C364   1.407   1_455  A
C363        C368   1.403       .  A
C363        H370   1.082       .  S
C364        C365   1.406       .  A
C365        C366   1.394       .  A
C365        F372   1.356       .  S
C366        C367   1.404       .  A
C366        H371   1.084       .  S
C367        C368   1.406   1_655  A
C368        F369   1.357       .  S
C373        C374   1.403       .  A
C373        C378   1.396       .  A
C373        H380   1.084       .  S
C374        C375   1.410   1_565  A
C375        C376   1.410       .  A
C375        F382   1.357       .  S
C376        C377   1.409   1_545  A
C376        H381   1.082       .  S
C377        C378   1.407       .  A
C378        F379   1.356       .  S
C383        C384   1.409       .  A
C383        C388   1.404       .  A
C383        H390   1.083       .  S
C384        C385   1.405       .  A
C385        C386   1.393       .  A
C385        F392   1.357   1_655  S
C386        C387   1.402       .  A
C386        H391   1.084   1_655  S
C387        C388   1.404       .  A
C388        F389   1.357       .  S
C393        C394   1.400       .  A
C393        C398   1.395       .  A
C393        H400   1.084       .  S
C394        C395   1.407   1_655  A
C395        C396   1.405       .  A
C395        F402   1.357       .  S
C396        C397   1.406   1_455  A
C396        H401   1.083       .  S
C397        C398   1.407       .  A
C398        F399   1.358       .  S
C403        C404   1.407       .  A
C403        C408   1.411       .  A
C403        H410   1.082       .  S
C404        C405   1.409       .  A
C405        C406   1.393       .  A
C405        F412   1.358       .  S
C406        C407   1.401       .  A
C406        H411   1.082       .  S
C407        C408   1.411       .  A
C408        F409   1.356       .  S
C413        C414   1.400       .  A
C413        C418   1.393       .  A
C413        H420   1.081   1_565  S
C414        C415   1.412       .  A
C415        C416   1.406       .  A
C415        F422   1.357       .  S
C416        C417   1.403       .  A
C416        H421   1.081       .  S
C417        C418   1.407       .  A
C418        F419   1.358   1_565  S
C423        C424   1.409       .  A
C423        C428   1.406       .  A
C423        H430   1.083       .  S
C424        C425   1.404       .  A
C425        C426   1.393       .  A
C425        F432   1.356       .  S
C426        C427   1.405       .  A
C426        H431   1.084       .  S
C427        C428   1.406       .  A
C428        F429   1.357       .  S
C433        C434   1.405       .  A
C433        C438   1.394       .  A
C433        H440   1.084       .  S
C434        C435   1.401       .  A
C435        C436   1.401       .  A
C435        F442   1.357       .  S
C436        C437   1.409       .  A
C436        H441   1.083       .  S
C437        C438   1.403       .  A
C438        F439   1.358       .  S
C443        C444   1.409       .  A
C443        C448   1.401       .  A
C443        H450   1.083       .  S
C444        C445   1.407   1_655  A
C445        C446   1.399       .  A
C445        F452   1.355       .  S
C446        C447   1.404       .  A
C446        H451   1.084       .  S
C447        C448   1.402   1_455  A
C448        F449   1.357       .  S
C453        C454   1.408       .  A
C453        C458   1.409       .  A
C453        H460   1.083   1_565  S
C454        C455   1.409       .  A
C455        C456   1.398       .  A
C455        F462   1.358       .  S
C456        C457   1.404       .  A
C456        H461   1.083       .  S
C457        C458   1.409       .  A
C458        F459   1.356   1_565  S
C463        C464   1.399   1_455  A
C463        C468   1.396       .  A
C463        H470   1.083       .  S
C464        C465   1.401       .  A
C465        C466   1.398       .  A
C465        F472   1.358       .  S
C466        C467   1.409       .  A
C466        H471   1.082       .  S
C467        C468   1.411   1_655  A
C468        F469   1.355       .  S
C473        C474   1.399       .  A
C473        C478   1.395       .  A
C473        H480   1.084       .  S
C474        C475   1.404   1_655  A
C475        C476   1.402       .  A
C475        F482   1.357       .  S
C476        C477   1.407   1_455  A
C476        H481   1.083       .  S
C477        C478   1.410       .  A
C478        F479   1.357       .  S
C483        C484   1.410       .  A
C483        C488   1.410       .  A
C483        H490   1.082       .  S
C484        C485   1.406       .  A
C485        C486   1.394       .  A
C485        F492   1.356       .  S
C486        C487   1.404       .  A
C486        H491   1.084       .  S
C487        C488   1.408       .  A
C488        F489   1.357       .  S
C493        C494   1.404       .  A
C493        C498   1.394       .  A
C493        H500   1.084       .  S
C494        C495   1.403       .  A
C495        C496   1.403       .  A
C495        F502   1.357       .  S
C496        C497   1.410       .  A
C496        H501   1.083       .  S
C497        C498   1.404       .  A
C498        F499   1.357       .  S
C503        C504   1.405   1_545  A
C503        C508   1.405       .  A
C503        H510   1.083       .  S
C504        C505   1.403       .  A
C505        C506   1.401       .  A
C505        F512   1.358       .  S
C506        C507   1.409       .  A
C506        H511   1.082       .  S
C507        C508   1.409   1_565  A
C508        F509   1.355       .  S
C513        C514   1.403       .  A
C513        C518   1.394       .  A
C513        H520   1.084       .  S
C514        C515   1.408       .  A
C515        C516   1.408       .  A
C515        F522   1.357   1_554  S
C516        C517   1.409       .  A
C516        H521   1.082   1_554  S
C517        C518   1.406       .  A
C518        F519   1.356       .  S
C523        C524   1.408       .  A
C523        C528   1.404       .  A
C523        H530   1.081       .  S
C524        C525   1.410       .  A
C525        C526   1.393       .  A
C525        F532   1.358       .  S
C526        C527   1.399       .  A
C526        H531   1.083       .  S
C527        C528   1.405       .  A
C528        F529   1.357   1_565  S
C533        C534   1.401       .  A
C533        C538   1.393       .  A
C533        H540   1.083       .  S
C534        C535   1.410       .  A
C535        C536   1.401       .  A
C535        F542   1.357       .  S
C536        C537   1.401       .  A
C536        H541   1.083       .  S
C537        C538   1.407       .  A
C538        F539   1.358       .  S
C543        C544   1.405       .  A
C543        C548   1.405       .  A
C543        H550   1.083   1_554  S
C544        C545   1.405       .  A
C545        C546   1.394       .  A
C545        F552   1.358       .  S
C546        C547   1.402       .  A
C546        H551   1.082       .  S
C547        C548   1.408       .  A
C548        F549   1.356   1_554  S
