geometry optimzed in LAMMPS
_audit_creation_date              2020-11-30 
_audit_creation_method            'lammps2cif' 
_symmetry_space_group_name_H-M    'P1' 
_symmetry_Int_Tables_number       1 
_symmetry_cell_setting            triclinic 
loop_ 
_symmetry_equiv_pos_as_xyz 
  x,y,z 
_cell_length_a                    40.55807613 
_cell_length_b                    40.86745698841161 
_cell_length_c                    40.64693512036407 
_cell_angle_alpha                 88.95931064997504 
_cell_angle_beta                  90.1884032366744 
_cell_angle_gamma                 90.07079703872917 
loop_ 
_atom_site_label 
_atom_site_type_symbol 
_atom_site_fract_x 
_atom_site_fract_y 
_atom_site_fract_z 
_atom_site_charge 
N1          N  0.55884492  0.66069526  0.97673918    -0.26800
N2          N  0.54792917  0.68133907  0.99889062    -0.34700
C3          C  0.57415989  0.69311117  0.01575178     0.01500
C4          C  0.60265907  0.67929404  0.00312485     0.07500
C5          C  0.59170757  0.65915061  0.97850049    -0.05600
H6          H  0.57239002  0.70786774  0.03742539     0.08200
H7          H  0.60637108  0.64146939  0.96549761     0.09400
Cu8        Cu  0.49731991  0.68757599  0.00738937     0.44200
Cu9        Cu  0.53113569  0.62649343  0.95189620     0.42000
Cu10       Cu  0.44677843  0.62851824  0.96020335     0.43900
N11         N  0.44555344  0.68618319  0.00691211    -0.34200
N12         N  0.42815961  0.66641675  0.98803399    -0.28500
C13         C  0.39605807  0.66982458  0.99492811    -0.04600
C14         C  0.39259666  0.69243593  0.01946512     0.07700
C15         C  0.42455933  0.70206058  0.02682489     0.01400
H16         H  0.37685812  0.65398016  0.98562965     0.09100
H17         H  0.43215785  0.71732997  0.04699574     0.08200
N18         N  0.47024332  0.58766823  0.94160238    -0.35700
N19         N  0.50255549  0.58695732  0.93841648    -0.27800
C20         C  0.51203180  0.55640585  0.93090622    -0.03100
C21         C  0.48417701  0.53681675  0.92936529     0.05500
C22         C  0.45807564  0.55757209  0.93613815     0.03600
H23         H  0.53740077  0.54853047  0.92928736     0.08700
H24         H  0.43252316  0.55078195  0.93938531     0.07600
N25         N  0.54511531  0.36253717  0.96126538    -0.26800
N26         N  0.53048349  0.34038201  0.98044545    -0.34700
C27         C  0.55416360  0.32234073  0.99575484     0.01500
C28         C  0.58509617  0.33303039  0.98524837     0.07500
C29         C  0.57791216  0.35847358  0.96338137    -0.05600
H30         H  0.54935186  0.30526800  0.01582779     0.08200
H31         H  0.59554367  0.37601432  0.95357813     0.09400
Cu32       Cu  0.47900721  0.33937827  0.98903866     0.44200
Cu33       Cu  0.52299259  0.40462563  0.94115243     0.42000
Cu34       Cu  0.43806658  0.41042527  0.95243635     0.43900
N35         N  0.42759976  0.34762394  0.99201698    -0.34200
N36         N  0.41372441  0.37355518  0.97780578    -0.28500
C37         C  0.38170095  0.37456094  0.98569497    -0.04600
C38         C  0.37435793  0.34794559  0.00563684     0.07700
C39         C  0.40408509  0.33124657  0.00937579     0.01400
H40         H  0.36529669  0.39446944  0.97902615     0.09100
H41         H  0.40869556  0.31018136  0.02515478     0.08200
N42         N  0.46536079  0.44991813  0.93578771    -0.35700
N43         N  0.49758543  0.44836393  0.93194388    -0.27800
C44         C  0.50928600  0.47897775  0.92681316    -0.03100
C45         C  0.48294191  0.50069841  0.92763675     0.05500
C46         C  0.45550490  0.48125558  0.93313894     0.03600
H47         H  0.53512103  0.48516769  0.92524659     0.08700
H48         H  0.43065922  0.48945234  0.93774692     0.07600
N49         N  0.65122600  0.97140769  0.56831284    -0.26800
N50         N  0.68180887  0.96572157  0.55891784    -0.34700
C51         C  0.69986191  0.95826459  0.58634815     0.01500
C52         C  0.67933788  0.96001089  0.61390703     0.07500
C53         C  0.64906455  0.96880112  0.60102590    -0.05600
H54         H  0.72492668  0.94923880  0.58603049     0.08200
H55         H  0.62589039  0.96874316  0.61416505     0.09400
Cu56       Cu  0.69236954  0.96478334  0.50759406     0.44200
Cu57       Cu  0.61030070  0.96770601  0.53874001     0.42000
Cu58       Cu  0.62132527  0.93039743  0.46289172     0.43900
N59         N  0.68756087  0.96400444  0.45528779    -0.34200
N60         N  0.66374777  0.94768414  0.44044611    -0.28500
C61         C  0.66428878  0.95452719  0.40805476    -0.04600
C62         C  0.68885432  0.97704234  0.40134559     0.07700
C63         C  0.70310177  0.98265422  0.43211092     0.01400
H64         H  0.64445373  0.94819605  0.39148686     0.09100
H65         H  0.72057985  0.00166303  0.43774691     0.08200
N66         N  0.57538612  0.93315785  0.48475710    -0.35700
N67         N  0.57162378  0.94712204  0.51350955    -0.27800
C68         C  0.53954898  0.94708871  0.52150978    -0.03100
C69         C  0.52208085  0.93322368  0.49606537     0.05500
C70         C  0.54550725  0.92484560  0.47298137     0.03600
H71         H  0.52953893  0.95816662  0.54327879     0.08700
H72         H  0.54108751  0.91456873  0.44900415     0.07600
N73         N  0.35662110  0.98229693  0.55487224    -0.26800
N74         N  0.33923194  0.00622446  0.54106664    -0.34700
C75         C  0.32547795  0.02383410  0.56529895     0.01500
C76         C  0.33384044  0.00971664  0.59565780     0.07500
C77         C  0.35380330  0.98364191  0.58774483    -0.05600
H78         H  0.31300721  0.04693406  0.56129264     0.08200
H79         H  0.36884039  0.96947288  0.60481353     0.09400
Cu80       Cu  0.33946528  0.01540200  0.48971586     0.44200
Cu81       Cu  0.39204265  0.95574776  0.53035960     0.42000
Cu82       Cu  0.39997270  0.96660952  0.44419539     0.43900
N83         N  0.34396263  0.01554206  0.43791298    -0.34200
N84         N  0.36498148  0.99668046  0.42214625    -0.28500
C85         C  0.36324598  0.00341065  0.38972988    -0.04600
C86         C  0.34000802  0.02751439  0.38435600     0.07700
C87         C  0.32849954  0.03501515  0.41548103     0.01400
H88         H  0.37962129  0.99328724  0.37158230     0.09100
H89         H  0.31166408  0.05446778  0.42155411     0.08200
N90         N  0.43672352  0.94540288  0.47274767    -0.35700
N91         N  0.43384267  0.94205124  0.50497869    -0.27800
C92         C  0.46346590  0.93459999  0.51793191    -0.03100
C93         C  0.48602772  0.93287170  0.49260094     0.05500
C94         C  0.46820363  0.93961825  0.46420572     0.03600
H95         H  0.46875021  0.93339046  0.54404447     0.08700
H96         H  0.47807141  0.94372948  0.43979011     0.07600
O97         O  0.70951725  0.95715052  0.01356025    -0.72500
O98         O  0.70538510  0.05580125  0.99860234    -0.73500
O99         O  0.70977615  0.01242688  0.05532878    -0.62100
O100        O  0.70683179  0.00039145  0.95721658    -0.70500
O101        O  0.65217888  0.99985946  0.95812113    -0.70000
O102        O  0.65531452  0.00906126  0.05772517    -0.61300
O103        O  0.65104446  0.05311206  0.00241901    -0.73800
O104        O  0.65496106  0.95631590  0.01312913    -0.72600
Cu105      Cu  0.70981910  0.00657919  0.00614327     1.04600
Cu106      Cu  0.65155001  0.00458131  0.00793417     1.04300
C107        C  0.68235517  0.94121137  0.01557368     0.93700
C108        C  0.67718365  0.06992686  0.99790702     0.92900
C109        C  0.68326974  0.01177625  0.07223595     0.85000
C110        C  0.67927125  0.99839486  0.94208712     0.91300
N111        N  0.70301106  0.99938323  0.34456589    -0.03000
C112        C  0.68566293  0.01758147  0.32202307    -0.00400
C113        C  0.65806256  0.03067332  0.33666727    -0.23300
C114        C  0.65802447  0.01971870  0.36884908    -0.23500
C115        C  0.68582354  0.00056388  0.37322449    -0.00500
H116        H  0.63850150  0.04423930  0.32446908     0.13300
H117        H  0.63842636  0.02316841  0.38645288     0.13300
N118        N  0.64205878  0.31193384  0.00128775    -0.03000
C119        C  0.66841139  0.32697220  0.01543175    -0.00400
C120        C  0.65902934  0.35653463  0.02831945    -0.23300
C121        C  0.62605480  0.36018007  0.02151758    -0.23500
C122        C  0.61602525  0.33264887  0.00484774    -0.00500
H123        H  0.67500979  0.37458720  0.03926101     0.13300
H124        H  0.61149629  0.38183027  0.02593273     0.13300
O125        O  0.00972436  0.02902095  0.66259004    -0.72500
O126        O  0.01089549  0.92987164  0.65907368    -0.73500
O127        O  0.96106334  0.97885456  0.66170617    -0.62100
O128        O  0.05967224  0.98066355  0.65894426    -0.70500
O129        O  0.06218342  0.97664872  0.71320128    -0.70000
O130        O  0.96207249  0.97794519  0.71601782    -0.61300
O131        O  0.01239682  0.92753609  0.71324229    -0.73800
O132        O  0.01252676  0.02614277  0.71705124    -0.72600
Cu133      Cu  0.01024501  0.97962287  0.65876116     1.04600
Cu134      Cu  0.01227207  0.97685025  0.71678670     1.04300
C135        C  0.01120452  0.04315888  0.69041405     0.93700
C136        C  0.01220424  0.91280575  0.68575701     0.92900
C137        C  0.94570625  0.97937712  0.68902088     0.85000
C138        C  0.07674564  0.97893913  0.68535059     0.91300
N139        N  0.02389830  0.31509385  0.69415749    -0.03000
C140        C  0.03685445  0.28804146  0.68002275    -0.00400
C141        C  0.05431467  0.29699758  0.65213388    -0.23300
C142        C  0.05154353  0.33042031  0.64866860    -0.23500
C143        C  0.03286752  0.34103647  0.67477140    -0.00500
H144        H  0.06562684  0.28069361  0.63478904     0.13300
H145        H  0.06004692  0.34509538  0.62794450     0.13300
N146        N  0.31818947  0.01985288  0.65477157    -0.03000
C147        C  0.33437667  0.03364501  0.68040914    -0.00400
C148        C  0.36259023  0.04922561  0.66930534    -0.23300
C149        C  0.36398507  0.04457941  0.63586810    -0.23500
C150        C  0.33643746  0.02657467  0.62746292    -0.00500
H151        H  0.38125101  0.06078414  0.68424320     0.13300
H152        H  0.38409200  0.05162392  0.61978740     0.13300
O153        O  0.33772264  0.06264646  0.99395568    -0.72500
O154        O  0.33506093  0.96501582  0.99740961    -0.73500
O155        O  0.33970422  0.01238309  0.94570274    -0.62100
O156        O  0.33263637  0.01571820  0.04457354    -0.70500
O157        O  0.27808510  0.01634331  0.04067221    -0.70000
O158        O  0.28537153  0.01488497  0.94145489    -0.61300
O159        O  0.28094017  0.96546122  0.99138081    -0.73800
O160        O  0.28363262  0.06481405  0.98948439    -0.72600
Cu161      Cu  0.33804586  0.01378574  0.99553076     1.04600
Cu162      Cu  0.28003118  0.01529356  0.99069437     1.04300
C163        C  0.31139605  0.07954392  0.99176404     0.93700
C164        C  0.30802235  0.94949380  0.99384695     0.92900
C165        C  0.31366122  0.01334629  0.92783887     0.85000
C166        C  0.30435298  0.01777064  0.05812375     0.91300
O167        O  0.06243870  0.98898666  0.29419031    -0.72500
O168        O  0.96290092  0.98880332  0.29185680    -0.73500
O169        O  0.01335552  0.03910270  0.29156241    -0.62100
O170        O  0.01266763  0.94045506  0.29359704    -0.70500
O171        O  0.01326632  0.94053456  0.34811665    -0.70000
O172        O  0.01010274  0.03965701  0.34576137    -0.61300
O173        O  0.96252940  0.98801316  0.34636915    -0.73800
O174        O  0.06119420  0.99207634  0.34820849    -0.72600
Cu175      Cu  0.01283071  0.98949788  0.29090924     1.04600
Cu176      Cu  0.01173529  0.99015205  0.34897370     1.04300
C177        C  0.07775157  0.99052243  0.32165288     0.93700
C178        C  0.94706436  0.98692354  0.31901014     0.92900
C179        C  0.01211668  0.05519815  0.31822432     0.85000
C180        C  0.01286028  0.92488538  0.32110566     0.91300
O181        O  0.98214135  0.28257947  0.05107474    -0.72500
O182        O  0.97967671  0.27546989  0.95196868    -0.73500
O183        O  0.03118944  0.28154148  0.00087403    -0.62100
O184        O  0.93192917  0.27542872  0.00277081    -0.70500
O185        O  0.92922305  0.32966015  0.00020879    -0.70000
O186        O  0.02848909  0.33535189  0.99441314    -0.61300
O187        O  0.97626557  0.32931658  0.94817004    -0.73800
O188        O  0.98214098  0.33639360  0.04599398    -0.72600
Cu189      Cu  0.98144008  0.27684789  0.00175275     1.04600
Cu190      Cu  0.97886352  0.33449278  0.99694130     1.04300
C191        C  0.98285298  0.31074765  0.06431151     0.93700
C192        C  0.97688558  0.30155232  0.93430214     0.92900
C193        C  0.04562903  0.30928879  0.99794811     0.85000
C194        C  0.91499682  0.30171879  0.00227679     0.91300
N195        N  0.00740949  0.32840360  0.30975862    -0.03000
C196        C  0.02130433  0.30289083  0.32679771    -0.00400
C197        C  0.03303680  0.31338199  0.35674966    -0.23300
C198        C  0.02584908  0.34614980  0.35840464    -0.23500
C199        C  0.01016409  0.35491974  0.32930219    -0.00500
H200        H  0.04333072  0.29824767  0.37633539     0.13300
H201        H  0.02927043  0.36136165  0.37967115     0.13300
N202        N  0.31720107  0.03963825  0.32798826    -0.03000
C203        C  0.32836661  0.05706177  0.30147128    -0.00400
C204        C  0.35516785  0.07588119  0.31061238    -0.23300
C205        C  0.36098510  0.06922843  0.34348343    -0.23500
C206        C  0.33723940  0.04702698  0.35357368    -0.00500
H207        H  0.37061613  0.09054107  0.29444065     0.13300
H208        H  0.38168127  0.07782531  0.35781457     0.13300
N209        N  0.31913272  0.32269581  0.01843463    -0.03000
C210        C  0.29101721  0.33467062  0.03180403    -0.00400
C211        C  0.29763987  0.36403198  0.04684438    -0.23300
C212        C  0.33055064  0.37058149  0.04187538    -0.23500
C213        C  0.34333396  0.34477307  0.02445988    -0.00500
H214        H  0.27977629  0.38051839  0.05723965     0.13300
H215        H  0.34311864  0.39309046  0.04783222     0.13300
O216        O  0.99884140  0.66319287  0.05184516    -0.72500
O217        O  0.99952670  0.65663956  0.95404777    -0.73500
O218        O  0.04915038  0.65911461  0.00350175    -0.62100
O219        O  0.94941362  0.66234995  0.00335203    -0.70500
O220        O  0.95175730  0.71588081  0.99667950    -0.70000
O221        O  0.05048811  0.71321059  0.99933719    -0.61300
O222        O  0.00134081  0.71038811  0.94813545    -0.73800
O223        O  0.99984083  0.71740443  0.04788133    -0.72600
Cu224      Cu  0.99922818  0.65848515  0.00317832     1.04600
Cu225      Cu  0.00101163  0.71610279  0.99774142     1.04300
C226        C  0.99851952  0.69105879  0.06542271     0.93700
C227        C  0.00017220  0.68202359  0.93532014     0.92900
C228        C  0.06555565  0.68589403  0.00231614     0.85000
C229        C  0.93467161  0.68995504  0.00077070     0.91300
N230        N  0.00791722  0.65436893  0.30980119    -0.03000
C231        C  0.02111097  0.67790596  0.32920006    -0.00400
C232        C  0.03264254  0.66422328  0.35830843    -0.23300
C233        C  0.02576361  0.63138123  0.35724071    -0.23500
C234        C  0.01038576  0.62578101  0.32741328    -0.00500
H235        H  0.04248706  0.67717403  0.37916134     0.13300
H236        H  0.02875865  0.61395687  0.37740305     0.13300
N237        N  0.33526064  0.70905744  0.03286438    -0.03000
C238        C  0.31039647  0.69259174  0.04817805    -0.00400
C239        C  0.32308393  0.66692226  0.06683589    -0.23300
C240        C  0.35665659  0.66720500  0.06216075    -0.23500
C241        C  0.36354645  0.69317966  0.04100178    -0.00500
H242        H  0.30912934  0.64789062  0.07937102     0.13300
H243        H  0.37361060  0.64817500  0.07005978     0.13300
N244        N  0.03943226  0.64102216  0.69662740    -0.03000
C245        C  0.05211392  0.66743294  0.68017332    -0.00400
C246        C  0.06723666  0.65745235  0.65166524    -0.23300
C247        C  0.06313931  0.62406632  0.65030718    -0.23500
C248        C  0.04588962  0.61443661  0.67816805    -0.00500
H249        H  0.07719192  0.67311653  0.63236954     0.13300
H250        H  0.06891393  0.60899635  0.62947610     0.13300
N251        N  0.70040234  0.95604656  0.67273530    -0.03000
C252        C  0.68556263  0.94451875  0.70070576    -0.00400
C253        C  0.65906385  0.92493172  0.69296918    -0.23300
C254        C  0.65699080  0.92481811  0.65931932    -0.23500
C255        C  0.68227049  0.94442802  0.64718431    -0.00500
H256        H  0.64135638  0.91438262  0.70997955     0.13300
H257        H  0.63707958  0.91421120  0.64525796     0.13300
N258        N  0.66072981  0.69620026  0.01886824    -0.03000
C259        C  0.68823223  0.67788183  0.02550559    -0.00400
C260        C  0.68002422  0.64532487  0.02959161    -0.23300
C261        C  0.64659411  0.64325662  0.02561651    -0.23500
C262        C  0.63513707  0.67458430  0.01896680    -0.00500
H263        H  0.69682106  0.62502199  0.03329877     0.13300
H264        H  0.63238987  0.62083385  0.02503644     0.13300
N265        N  0.99649523  0.54667307  0.65268039    -0.26800
N266        N  0.01698531  0.53061954  0.67260348    -0.34700
C267        C  0.03579358  0.55284515  0.68836785     0.01500
C268        C  0.02597205  0.58414926  0.67854150     0.07500
C269        C  0.00111069  0.57896410  0.65594094    -0.05600
H270        H  0.05693887  0.54669466  0.70356356     0.08200
H271        H  0.99029283  0.59730165  0.63974981     0.09400
Cu272      Cu  0.02040991  0.47895368  0.67433491     0.44200
Cu273      Cu  0.97053155  0.52682356  0.61367615     0.42000
Cu274      Cu  0.97115291  0.44185678  0.61001673     0.43900
N275        N  0.01326416  0.42790673  0.67024014    -0.34200
N276        N  0.99337220  0.41548997  0.64782556    -0.28500
C277        C  0.99476880  0.38271844  0.64950126    -0.04600
C278        C  0.01658406  0.37337914  0.67402227     0.07700
C279        C  0.02829181  0.40277658  0.68642790     0.01400
H280        H  0.98349980  0.36681618  0.63166412     0.09100
H281        H  0.04814836  0.40570333  0.70395129     0.08200
N282        N  0.95653676  0.47061904  0.57028010    -0.35700
N283        N  0.95608226  0.50284615  0.57136123    -0.27800
C284        C  0.94842836  0.51498872  0.54121615    -0.03100
C285        C  0.94383902  0.48892020  0.52025772     0.05500
C286        C  0.94919906  0.46121082  0.53960828     0.03600
H287        H  0.94759847  0.54076025  0.53476507     0.08700
H288        H  0.94909541  0.43607421  0.53172547     0.07600
N289        N  0.96110615  0.55641471  0.34811100    -0.26800
N290        N  0.98154964  0.54223646  0.32747145    -0.34700
C291        C  0.99955330  0.56597099  0.31233203     0.01500
C292        C  0.98936137  0.59648299  0.32328185     0.07500
C293        C  0.96479718  0.58898983  0.34574367    -0.05600
H294        H  0.02102953  0.56118847  0.29747327     0.08200
H295        H  0.95459099  0.60573328  0.36334126     0.09400
Cu296      Cu  0.98696800  0.49074836  0.32526604     0.44200
Cu297      Cu  0.93980784  0.53334530  0.38865309     0.42000
Cu298      Cu  0.94093876  0.44827733  0.38989409     0.43900
N299        N  0.98231434  0.43917035  0.32901400    -0.34200
N300        N  0.96263165  0.42488546  0.35083895    -0.28500
C301        C  0.96649213  0.39235085  0.34978177    -0.04600
C302        C  0.99008003  0.38505133  0.32661086     0.07700
C303        C  0.99980131  0.41550997  0.31402223     0.01400
H304        H  0.95657038  0.37548987  0.36804879     0.09100
H305        H  0.02045503  0.42025614  0.29782981     0.08200
N306        N  0.93499258  0.47447976  0.43251471    -0.35700
N307        N  0.93473167  0.50675079  0.43231197    -0.27800
C308        C  0.93634232  0.51713696  0.46357622    -0.03100
C309        C  0.93776681  0.48991106  0.48439873     0.05500
C310        C  0.93674513  0.46331381  0.46378603     0.03600
H311        H  0.93861669  0.54248903  0.47045882     0.08700
H312        H  0.93942609  0.43780710  0.47080627     0.07600
C313        C  0.27526167  0.69364865  0.03766858     0.01800
C314        C  0.25346199  0.71725462  0.05000117     0.04600
C315        C  0.21970379  0.71619889  0.04170584    -0.11400
C316        C  0.20736337  0.69095906  0.02190822     0.23900
C317        C  0.22909478  0.66748898  0.00934694    -0.12000
C318        C  0.26293437  0.66888601  0.01701406     0.05300
C319        C  0.17129996  0.68830477  0.01558792     0.27800
C320        C  0.15155906  0.66850202  0.03631628    -0.12700
C321        C  0.11717758  0.66697490  0.03140995     0.05800
C322        C  0.10214767  0.68554694  0.00574637    -0.08700
C323        C  0.12221056  0.70520985  0.98483676     0.06700
C324        C  0.15665474  0.70623771  0.98955706    -0.13000
Br325      Br  0.21215203  0.63295776  0.98224446    -0.05100
Br326      Br  0.26906557  0.74949633  0.08027071     0.00500
Br327      Br  0.09077531  0.64127160  0.06179726     0.01000
Br328      Br  0.18413737  0.73237842  0.96057837    -0.03400
Br329      Br  0.29221044  0.63627144  0.99946842     0.01100
Br330      Br  0.18992810  0.74876772  0.05820582    -0.02700
Br331      Br  0.17179775  0.64419146  0.07217457    -0.03600
Br332      Br  0.10308596  0.73060960  0.94927262     0.00400
C333        C  0.00183732  0.65806539  0.27480493     0.01800
C334        C  0.97690472  0.67923008  0.26290656     0.04600
C335        C  0.97632968  0.68928528  0.22954238    -0.11400
C336        C  0.99806981  0.67504569  0.20689848     0.23900
C337        C  0.02119150  0.65164465  0.21825294    -0.12000
C338        C  0.02407559  0.64434282  0.25215321     0.05300
C339        C  0.99590086  0.68338614  0.17101726     0.27800
C340        C  0.96993736  0.67063499  0.15193785    -0.12700
C341        C  0.96957574  0.67564146  0.11757540     0.05800
C342        C  0.99600934  0.69194800  0.10175832    -0.08700
C343        C  0.02136481  0.70575104  0.12084746     0.06700
C344        C  0.02085688  0.70217611  0.15546023    -0.13000
Br345      Br  0.04922089  0.62973570  0.18729234    -0.05100
Br346      Br  0.94218079  0.69258514  0.29170262     0.00500
Br347      Br  0.93245975  0.66048519  0.09209843     0.01000
Br348      Br  0.05474860  0.72235860  0.18161679    -0.03400
Br349      Br  0.06057386  0.61793386  0.26754576     0.01100
Br350      Br  0.94676081  0.72361556  0.21512809    -0.02700
Br351      Br  0.93567756  0.64474390  0.17263124    -0.03600
Br352      Br  0.05810428  0.72722877  0.09948840     0.00400
C353        C  0.72323887  0.68879265  0.02360108     0.01800
C354        C  0.73703472  0.69752950  0.99275405     0.04600
C355        C  0.77123650  0.70249640  0.98959978    -0.11400
C356        C  0.79215534  0.69737612  0.01684531     0.23900
C357        C  0.77870783  0.68900137  0.04770649    -0.12000
C358        C  0.74455207  0.68376424  0.05093461     0.05300
C359        C  0.82840705  0.69603754  0.01201242     0.27800
C360        C  0.84300244  0.66675029  0.00179128    -0.12700
C361        C  0.87733039  0.66490161  0.99701093     0.05800
C362        C  0.89781968  0.69230354  0.00361798    -0.08700
C363        C  0.88259707  0.72182882  0.01415047     0.06700
C364        C  0.84808066  0.72357963  0.01779597    -0.13000
Br365      Br  0.80767894  0.68265303  0.08508147    -0.05100
Br366      Br  0.71080131  0.69594163  0.95334090     0.00500
Br367      Br  0.89484238  0.62463411  0.98006142     0.01000
Br368      Br  0.82718142  0.76365124  0.03124966    -0.03400
Br369      Br  0.72832548  0.66523861  0.09180962     0.01100
Br370      Br  0.79009986  0.71383186  0.94732522    -0.02700
Br371      Br  0.81542008  0.62885698  0.99464137    -0.03600
Br372      Br  0.90779847  0.76025310  0.02566123     0.00400
C373        C  0.00002320  0.67769547  0.89876392     0.01800
C374        C  0.98455331  0.64975408  0.88517465     0.04600
C375        C  0.98938088  0.64192606  0.85195688    -0.11400
C376        C  0.00798350  0.66277756  0.83137790     0.23900
C377        C  0.02045348  0.69231443  0.84363608    -0.12000
C378        C  0.01676041  0.69978543  0.87718931     0.05300
C379        C  0.01453457  0.65366963  0.79678084     0.27800
C380        C  0.04456484  0.63856631  0.78859626    -0.12700
C381        C  0.05163907  0.63179766  0.75553186     0.05800
C382        C  0.02901199  0.64072053  0.73049344    -0.08700
C383        C  0.99793255  0.65299935  0.73907606     0.06700
C384        C  0.99089227  0.66014345  0.77204060    -0.13000
Br385      Br  0.04281784  0.72239360  0.81400405    -0.05100
Br386      Br  0.95443019  0.62300006  0.91075575     0.00500
Br387      Br  0.09268848  0.61105407  0.74437859     0.01000
Br388      Br  0.94942124  0.67999271  0.78321108    -0.03400
Br389      Br  0.03534400  0.74023480  0.89249807     0.01100
Br390      Br  0.97081763  0.60227956  0.83443541    -0.02700
Br391      Br  0.07650372  0.62849785  0.82259544    -0.03600
Br392      Br  0.96452531  0.65802395  0.70588783     0.00400
C393        C  0.25683420  0.32516153  0.02221519     0.01800
C394        C  0.23985424  0.34470240  0.99858822     0.04600
C395        C  0.20606111  0.33958769  0.99252628    -0.11400
C396        C  0.18864668  0.31535624  0.01038466     0.23900
C397        C  0.20569418  0.29492315  0.03298800    -0.12000
C398        C  0.23965477  0.29985999  0.03900116     0.05300
C399        C  0.15202956  0.31332335  0.00720851     0.27800
C400        C  0.13202937  0.33532325  0.02444441    -0.12700
C401        C  0.09749549  0.33497767  0.02030555     0.05800
C402        C  0.08236153  0.31135044  0.00006035    -0.08700
C403        C  0.10258783  0.28886339  0.98332063     0.06700
C404        C  0.13724883  0.29026049  0.98648590    -0.13000
Br405      Br  0.18191106  0.26118603  0.05680691    -0.05100
Br406      Br  0.26233750  0.37994630  0.97551889     0.00500
Br407      Br  0.07134781  0.36635421  0.04383363     0.01000
Br408      Br  0.16482682  0.26069859  0.96236686    -0.03400
Br409      Br  0.26152093  0.27359130  0.07215730     0.01100
Br410      Br  0.18309464  0.36657953  0.96045063    -0.02700
Br411      Br  0.15220133  0.36532370  0.05472324    -0.03600
Br412      Br  0.08333939  0.25676660  0.95486237     0.00400
C413        C  0.98448044  0.31378118  0.10096479     0.01800
C414        C  0.99968127  0.28894261  0.12068952     0.04600
C415        C  0.00012054  0.29126523  0.15523787    -0.11400
C416        C  0.98735060  0.31911288  0.17044772     0.23900
C417        C  0.97290996  0.34420672  0.15126077    -0.12000
C418        C  0.97111078  0.34162382  0.11677401     0.05300
C419        C  0.99136688  0.32313956  0.20648797     0.27800
C420        C  0.96604866  0.31367496  0.22834547    -0.12700
C421        C  0.97059739  0.31680364  0.26254208     0.05800
C422        C  0.00048592  0.32914544  0.27494656    -0.08700
C423        C  0.02486187  0.34059407  0.25288148     0.06700
C424        C  0.02058933  0.33704522  0.21880440    -0.13000
Br425      Br  0.95584991  0.38243535  0.17274496    -0.05100
Br426      Br  0.02313953  0.25296662  0.10125677     0.00500
Br427      Br  0.93539775  0.30601843  0.29224893     0.01000
Br428      Br  0.05504662  0.35059903  0.18885571    -0.03400
Br429      Br  0.94994663  0.37697551  0.09245187     0.01100
Br430      Br  0.01856315  0.25637818  0.18222155    -0.02700
Br431      Br  0.92539130  0.29622819  0.21124257    -0.03600
Br432      Br  0.06430270  0.36107243  0.26942445     0.00400
C433        C  0.11474895  0.99039796  0.32273964     0.01800
C434        C  0.13337916  0.00229645  0.29539386     0.04600
C435        C  0.16807689  0.00322075  0.29700522    -0.11400
C436        C  0.18468353  0.99231709  0.32554368     0.23900
C437        C  0.16680525  0.97866165  0.35188893    -0.12000
C438        C  0.13207037  0.97860279  0.35116461     0.05300
C439        C  0.21983862  0.00127722  0.33018629     0.27800
C440        C  0.24544090  0.98247833  0.31674365    -0.12700
C441        C  0.27812821  0.99428473  0.31739007     0.05800
C442        C  0.28502258  0.02501875  0.33096319    -0.08700
C443        C  0.25964378  0.04268758  0.34623579     0.06700
C444        C  0.22727171  0.03065849  0.34621564    -0.13000
Br445      Br  0.19058093  0.96128036  0.38961145    -0.05100
Br446      Br  0.11252250  0.02093296  0.25648055     0.00500
Br447      Br  0.31350552  0.96844398  0.30031860     0.01000
Br448      Br  0.19273057  0.05516761  0.36720586    -0.03400
Br449      Br  0.10971773  0.96376219  0.39062755     0.01100
Br450      Br  0.19331746  0.02113535  0.26063000    -0.02700
Br451      Br  0.23546306  0.94096945  0.29728390    -0.03600
Br452      Br  0.26859396  0.08496232  0.36475338     0.00400
C453        C  0.01369246  0.09197252  0.31727307     0.01800
C454        C  0.99853037  0.11038606  0.29136101     0.04600
C455        C  0.00003567  0.14492043  0.29076431    -0.11400
C456        C  0.01674850  0.16163517  0.31572950     0.23900
C457        C  0.03264968  0.14368037  0.34104855    -0.12000
C458        C  0.03114179  0.10913493  0.34197998     0.05300
C459        C  0.01649033  0.19817250  0.31612464     0.27800
C460        C  0.04007434  0.21652191  0.29824581    -0.12700
C461        C  0.04066346  0.25099928  0.30011124     0.05800
C462        C  0.01744787  0.26743946  0.31963750    -0.08700
C463        C  0.99373720  0.24888224  0.33739748     0.06700
C464        C  0.99309286  0.21451050  0.33535763    -0.13000
Br465      Br  0.05691841  0.16684780  0.37433979    -0.05100
Br466      Br  0.97438705  0.08928398  0.25677720     0.00500
Br467      Br  0.07516031  0.27513083  0.27819852     0.01000
Br468      Br  0.96091473  0.18942483  0.36003068    -0.03400
Br469      Br  0.05485145  0.08599423  0.37654544     0.01100
Br470      Br  0.97890918  0.16986214  0.25579324    -0.02700
Br471      Br  0.07255062  0.19408498  0.27246545    -0.03600
Br472      Br  0.96338873  0.27017977  0.36663634     0.00400
C473        C  0.01232474  0.88848945  0.32139707     0.01800
C474        C  0.03540164  0.87041215  0.34042446     0.04600
C475        C  0.03513867  0.83597013  0.34022538    -0.11400
C476        C  0.01227617  0.81923135  0.32052933     0.23900
C477        C  0.98910843  0.83703999  0.30158203    -0.12000
C478        C  0.98899447  0.87154293  0.30207392     0.05300
C479        C  0.01249376  0.78283573  0.32036789     0.27800
C480        C  0.03476093  0.76606461  0.30013640    -0.12700
C481        C  0.03747389  0.73171280  0.30258010     0.05800
C482        C  0.01708599  0.71385431  0.32445758    -0.08700
C483        C  0.99443900  0.73076675  0.34441079     0.06700
C484        C  0.99216429  0.76509243  0.34229396    -0.13000
Br485      Br  0.95737628  0.81387483  0.27524328    -0.05100
Br486      Br  0.06887064  0.89241239  0.36535332     0.00500
Br487      Br  0.07127780  0.70968662  0.27833052     0.01000
Br488      Br  0.96192729  0.78813456  0.37020918    -0.03400
Br489      Br  0.95576517  0.89527732  0.27728774     0.01100
Br490      Br  0.06608385  0.81140510  0.36711625    -0.02700
Br491      Br  0.06226710  0.79049859  0.26984225    -0.03600
Br492      Br  0.96658248  0.70709584  0.37520411     0.00400
C493        C  0.31335404  0.11623735  0.99239842     0.01800
C494        C  0.34290683  0.13296859  0.98315529     0.04600
C495        C  0.34482805  0.16731389  0.98465245    -0.11400
C496        C  0.31747260  0.18554976  0.99459051     0.23900
C497        C  0.28799725  0.16955050  0.00330568    -0.12000
C498        C  0.28617952  0.13508762  0.00342010     0.05300
C499        C  0.32085914  0.22132235  0.99917657     0.27800
C500        C  0.33245851  0.23293522  0.02950186    -0.12700
C501        C  0.33487376  0.26673056  0.03456195     0.05800
C502        C  0.32399338  0.28904096  0.01002440    -0.08700
C503        C  0.31434851  0.27754267  0.97905215     0.06700
C504        C  0.31303401  0.24364158  0.97348368    -0.13000
Br505      Br  0.25029086  0.19532131  0.01584904    -0.05100
Br506      Br  0.38194657  0.11027749  0.96879711     0.00500
Br507      Br  0.35136300  0.28259203  0.07591041     0.01000
Br508      Br  0.30019659  0.22760569  0.93103096    -0.03400
Br509      Br  0.24752774  0.11477048  0.02267996     0.01100
Br510      Br  0.38537992  0.18997988  0.97379293    -0.02700
Br511      Br  0.34359041  0.20244850  0.06463141    -0.03600
Br512      Br  0.30380291  0.30836510  0.94438667     0.00400
C513        C  0.32063008  0.04977324  0.26645484     0.01800
C514        C  0.34398651  0.03248124  0.24770081     0.04600
C515        C  0.33823967  0.02677747  0.21412723    -0.11400
C516        C  0.30914088  0.03817492  0.19884135     0.23900
C517        C  0.28570909  0.05531498  0.21738866    -0.12000
C518        C  0.29162732  0.06152500  0.25098283     0.05300
C519        C  0.30476076  0.03424720  0.16268967     0.27800
C520        C  0.31940260  0.05702946  0.14079546    -0.12700
C521        C  0.31836867  0.05192186  0.10665760     0.05800
C522        C  0.30260914  0.02393604  0.09400248    -0.08700
C523        C  0.28650709  0.00196256  0.11584194     0.06700
C524        C  0.28788692  0.00694744  0.15014377    -0.13000
Br525      Br  0.24612908  0.07127222  0.19616414    -0.05100
Br526      Br  0.38449127  0.01684305  0.26765148     0.00500
Br527      Br  0.33790770  0.08405274  0.07722358     0.01000
Br528      Br  0.26781435  0.97587901  0.18025006    -0.03400
Br529      Br  0.26145391  0.08867306  0.27461239     0.01100
Br530      Br  0.37078348  0.00409692  0.18854429    -0.02700
Br531      Br  0.34166505  0.09495231  0.15785115    -0.03600
Br532      Br  0.26392233  0.96427804  0.09902824     0.00400
C533        C  0.30886808  0.91290321  0.99211668     0.01800
C534        C  0.33639228  0.89714527  0.97765344     0.04600
C535        C  0.33932233  0.86279659  0.97913736    -0.11400
C536        C  0.31505956  0.84371590  0.99492971     0.23900
C537        C  0.28641239  0.85881007  0.00688020    -0.12000
C538        C  0.28319162  0.89322216  0.00554788     0.05300
C539        C  0.32189132  0.80872926  0.00325861     0.27800
C540        C  0.31469117  0.78357773  0.98099928    -0.12700
C541        C  0.32071019  0.75059445  0.99005324     0.05800
C542        C  0.33338891  0.74264778  0.02144965    -0.08700
C543        C  0.34219799  0.76799472  0.04295864     0.06700
C544        C  0.33632810  0.80084198  0.03395536    -0.13000
Br545      Br  0.25220053  0.83192429  0.02632033    -0.05100
Br546      Br  0.37045874  0.92180430  0.95496038     0.00500
Br547      Br  0.31299851  0.71623377  0.95931677     0.01000
Br548      Br  0.34747325  0.83526702  0.06402068    -0.03400
Br549      Br  0.24433227  0.91257055  0.02434220     0.01100
Br550      Br  0.37720316  0.84150978  0.96039115    -0.02700
Br551      Br  0.29640858  0.79439391  0.93839384    -0.03600
Br552      Br  0.36097002  0.75772468  0.08558924     0.00400
C553        C  0.32758250  0.02720479  0.71596295     0.01800
C554        C  0.34767923  0.00476939  0.73373882     0.04600
C555        C  0.34273773  0.99935635  0.76767598    -0.11400
C556        C  0.31914452  0.01776356  0.78465377     0.23900
C557        C  0.29938148  0.04053315  0.76716119    -0.12000
C558        C  0.30343546  0.04512845  0.73289964     0.05300
C559        C  0.31786869  0.01584557  0.82130774     0.27800
C560        C  0.29469127  0.99569205  0.83759036    -0.12700
C561        C  0.29386662  0.99411286  0.87233231     0.05800
C562        C  0.31604625  0.01311563  0.89114796    -0.08700
C563        C  0.33969908  0.03278198  0.87450558     0.06700
C564        C  0.34042225  0.03421253  0.83984979    -0.13000
Br565      Br  0.26803050  0.06667154  0.79071909    -0.05100
Br566      Br  0.38360663  0.98276774  0.71220530     0.00500
Br567      Br  0.26349984  0.96423124  0.89375909     0.01000
Br568      Br  0.37196430  0.06209977  0.81737665    -0.03400
Br569      Br  0.27815156  0.07833908  0.71013493     0.01100
Br570      Br  0.36905147  0.96739899  0.79138106    -0.02700
Br571      Br  0.26407561  0.97035532  0.81198963    -0.03600
Br572      Br  0.37059936  0.05916993  0.89852135     0.00400
C573        C  0.97500804  0.30041750  0.89755743     0.01800
C574        C  0.95838154  0.32572464  0.87975255     0.04600
C575        C  0.96272232  0.32936223  0.84551832    -0.11400
C576        C  0.98166060  0.30652412  0.82840816     0.23900
C577        C  0.99434338  0.27884239  0.84515657    -0.12000
C578        C  0.99154405  0.27587741  0.87964565     0.05300
C579        C  0.99036450  0.31241842  0.79332049     0.27800
C580        C  0.96913719  0.30235130  0.76793983    -0.12700
C581        C  0.97939831  0.30483181  0.73488646     0.05800
C582        C  0.01111862  0.31676768  0.72716831    -0.08700
C583        C  0.03157985  0.32845120  0.75255735     0.06700
C584        C  0.02119055  0.32636798  0.78548113    -0.13000
Br585      Br  0.01644113  0.24544682  0.82039902    -0.05100
Br586      Br  0.92783310  0.35454140  0.90136398     0.00500
Br587      Br  0.94970854  0.29282329  0.70028288     0.01000
Br588      Br  0.04970123  0.34152325  0.82017718    -0.03400
Br589      Br  0.01177067  0.23853487  0.90126951     0.01100
Br590      Br  0.94363175  0.36621119  0.82200738    -0.02700
Br591      Br  0.92648021  0.28432852  0.77873776    -0.03600
Br592      Br  0.07487834  0.34544724  0.74253352     0.00400
C593        C  0.11353449  0.98000572  0.68329062     0.01800
C594        C  0.13013632  0.96451247  0.65711398     0.04600
C595        C  0.16448269  0.96770666  0.65351015    -0.11400
C596        C  0.18283993  0.98578962  0.67620305     0.23900
C597        C  0.16694366  0.00006193  0.70311960    -0.12000
C598        C  0.13236768  0.99785744  0.70634574     0.05300
C599        C  0.21801570  0.99322852  0.66926995     0.27800
C600        C  0.24315078  0.97118422  0.67872163    -0.12700
C601        C  0.27631688  0.97868165  0.67155028     0.05800
C602        C  0.28451018  0.00854120  0.65571027    -0.08700
C603        C  0.25911644  0.02963655  0.64467833     0.06700
C604        C  0.22603213  0.02212343  0.65165045    -0.13000
Br605      Br  0.19281924  0.02379041  0.73475266    -0.05100
Br606      Br  0.10668388  0.93873124  0.62548312     0.00500
Br607      Br  0.31034580  0.94748010  0.68181284     0.01000
Br608      Br  0.19150799  0.05191931  0.63789882    -0.03400
Br609      Br  0.11115600  0.02260687  0.74031677     0.01100
Br610      Br  0.18662954  0.94848281  0.61650331    -0.02700
Br611      Br  0.23204248  0.93113685  0.70194079    -0.03600
Br612      Br  0.26966944  0.06985608  0.62146241     0.00400
C613        C  0.01215920  0.07948502  0.69181407     0.01800
C614        C  0.98919431  0.09674054  0.71105076     0.04600
C615        C  0.99080991  0.13122684  0.71272016    -0.11400
C616        C  0.01506491  0.14867570  0.69485940     0.23900
C617        C  0.03764850  0.13149163  0.67533612    -0.12000
C618        C  0.03654095  0.09708209  0.67418529     0.05300
C619        C  0.01643378  0.18517022  0.69509975     0.27800
C620        C  0.99953150  0.20330739  0.67060629    -0.12700
C621        C  0.00570174  0.23702705  0.66629888     0.05800
C622        C  0.02768961  0.25337991  0.68758541    -0.08700
C623        C  0.04383546  0.23533900  0.71279923     0.06700
C624        C  0.03806506  0.20138322  0.71664834    -0.13000
Br625      Br  0.06986742  0.15540707  0.64957388    -0.05100
Br626      Br  0.95440087  0.07338234  0.73372342     0.00500
Br627      Br  0.98587463  0.26003299  0.62926310     0.01000
Br628      Br  0.06113339  0.17647876  0.75023985    -0.03400
Br629      Br  0.06969555  0.07406985  0.64969629     0.01100
Br630      Br  0.95949234  0.15483777  0.73882642    -0.02700
Br631      Br  0.96913620  0.18131443  0.64178382    -0.03600
Br632      Br  0.07678782  0.25606995  0.73950791     0.00400
C633        C  0.01461433  0.87592044  0.68520982     0.01800
C634        C  0.00312560  0.85646149  0.71225949     0.04600
C635        C  0.00853509  0.82226855  0.71341197    -0.11400
C636        C  0.02539855  0.80682358  0.68779325     0.23900
C637        C  0.03614232  0.82564940  0.66051261    -0.12000
C638        C  0.02998120  0.85965445  0.65863455     0.05300
C639        C  0.03047088  0.77051729  0.68851356     0.27800
C640        C  0.05585326  0.75616036  0.70775234    -0.12700
C641        C  0.06143594  0.72202959  0.70700942     0.05800
C642        C  0.04297606  0.70227939  0.68557035    -0.08700
C643        C  0.01816241  0.71692088  0.66568767     0.06700
C644        C  0.01101974  0.75049822  0.66826711    -0.13000
Br645      Br  0.06018680  0.80451180  0.62579074    -0.05100
Br646      Br  0.97747641  0.87538538  0.74707832     0.00500
Br647      Br  0.09587332  0.70282365  0.73369435     0.01000
Br648      Br  0.97507697  0.76944420  0.64317463    -0.03400
Br649      Br  0.04249845  0.88255541  0.61867499     0.01100
Br650      Br  0.99257533  0.79610381  0.75010582    -0.02700
Br651      Br  0.08437470  0.78369016  0.73337171    -0.03600
Br652      Br  0.99535674  0.69170544  0.63284771     0.00400
C653        C  0.90884796  0.98215478  0.68875255     0.01800
C654        C  0.89265741  0.99953388  0.66270246     0.04600
C655        C  0.85801415  0.99874542  0.65986154    -0.11400
C656        C  0.83895633  0.98281770  0.68413570     0.23900
C657        C  0.85459063  0.96861077  0.71186662    -0.12000
C658        C  0.88931250  0.96710840  0.71368054     0.05300
C659        C  0.80302691  0.97741118  0.67871274     0.27800
C660        C  0.77967922  0.00194414  0.68542812    -0.12700
C661        C  0.74574806  0.99580331  0.68075949     0.05800
C662        C  0.73488929  0.96464107  0.67120047    -0.08700
C663        C  0.75839488  0.94027093  0.66410474     0.06700
C664        C  0.79226708  0.94689565  0.66716331    -0.13000
Br665      Br  0.82791318  0.95041595  0.74697694    -0.05100
Br666      Br  0.91707205  0.02592271  0.63114853     0.00500
Br667      Br  0.71407388  0.03006994  0.68668733     0.01000
Br668      Br  0.82416757  0.91369000  0.65646627    -0.03400
Br669      Br  0.90906092  0.94180534  0.74910554     0.01100
Br670      Br  0.83645314  0.01845348  0.62197632    -0.02700
Br671      Br  0.79413142  0.04328665  0.70242410    -0.03600
Br672      Br  0.74439172  0.89678083  0.65259134     0.00400
C673        C  0.87863964  0.29993633  0.00457135     0.01800
C674        C  0.86275957  0.31088507  0.03305397     0.04600
C675        C  0.82824862  0.31394480  0.03370256    -0.11400
C676        C  0.80907028  0.30248298  0.00725700     0.23900
C677        C  0.82487917  0.28812448  0.98018425    -0.12000
C678        C  0.85962280  0.28794213  0.97830085     0.05300
C679        C  0.77253008  0.30660018  0.00756639     0.27800
C680        C  0.75285674  0.28774027  0.02931317    -0.12700
C681        C  0.71879118  0.29412787  0.03197141     0.05800
C682        C  0.70370900  0.31788303  0.01128808    -0.08700
C683        C  0.72345887  0.33643189  0.98917730     0.06700
C684        C  0.75772736  0.33117750  0.98775322    -0.13000
Br685      Br  0.79883866  0.26872463  0.94584407    -0.05100
Br686      Br  0.88808810  0.31893497  0.07219324     0.00500
Br687      Br  0.69406579  0.27327072  0.06678721     0.01000
Br688      Br  0.78484405  0.35926183  0.96027109    -0.03400
Br689      Br  0.88116631  0.27214989  0.93946158     0.01100
Br690      Br  0.80752152  0.33513249  0.07032120    -0.02700
Br691      Br  0.77314376  0.25423106  0.05665502    -0.03600
Br692      Br  0.70397663  0.37049545  0.96181906     0.00400
C693        C  0.73755853  0.99156038  0.34207644     0.01800
C694        C  0.74852132  0.96596650  0.32204155     0.04600
C695        C  0.78255038  0.96128834  0.31688560    -0.11400
C696        C  0.80565722  0.98151400  0.33262698     0.23900
C697        C  0.79478046  0.00602049  0.35388195    -0.12000
C698        C  0.76092016  0.01148135  0.35807700     0.05300
C699        C  0.84139732  0.97891959  0.32552834     0.27800
C700        C  0.86161788  0.95814700  0.34474958    -0.12700
C701        C  0.89612196  0.95948769  0.34120229     0.05800
C702        C  0.91065915  0.98268328  0.31932201    -0.08700
C703        C  0.89007897  0.00221431  0.29887694     0.06700
C704        C  0.85557698  0.99992914  0.30167952    -0.13000
Br705      Br  0.82653417  0.03294696  0.37639632    -0.05100
Br706      Br  0.71712246  0.93714489  0.30209138     0.00500
Br707      Br  0.92310130  0.92843570  0.36551999     0.01000
Br708      Br  0.82736976  0.02644935  0.27365523    -0.03400
Br709      Br  0.74678117  0.04840676  0.38339827     0.01100
Br710      Br  0.79773735  0.92795609  0.28760670    -0.02700
Br711      Br  0.84185355  0.92868622  0.37667268    -0.03600
Br712      Br  0.90846648  0.03390353  0.26855241     0.00400
C713        C  0.67399663  0.10591806  0.99193527     0.01800
C714        C  0.69566214  0.12822778  0.00716249     0.04600
C715        C  0.68983049  0.16218963  0.00434481    -0.11400
C716        C  0.66203357  0.17422020  0.98713109     0.23900
C717        C  0.64127043  0.15225555  0.97070507    -0.12000
C718        C  0.64751715  0.11834247  0.97250685     0.05300
C719        C  0.65339533  0.20965455  0.98838253     0.27800
C720        C  0.63567041  0.22143218  0.01547359    -0.12700
C721        C  0.62894634  0.25509919  0.01794024     0.05800
C722        C  0.64089292  0.27747954  0.99392582    -0.08700
C723        C  0.65693988  0.26545337  0.96592542     0.06700
C724        C  0.66322327  0.23164637  0.96313085    -0.13000
Br725      Br  0.60358300  0.16882406  0.94656158    -0.05100
Br726      Br  0.73203068  0.11283968  0.03403275     0.00500
Br727      Br  0.60565743  0.27086340  0.05578655     0.01000
Br728      Br  0.68648908  0.21547328  0.92549103    -0.03400
Br729      Br  0.62008306  0.08935584  0.94713396     0.01100
Br730      Br  0.71933085  0.19251382  0.02500688    -0.02700
Br731      Br  0.62243575  0.19152382  0.05030515    -0.03600
Br732      Br  0.66995279  0.29541506  0.93140633     0.00400
C733        C  0.68531001  0.01346181  0.10890908     0.01800
C734        C  0.70667898  0.99218535  0.12675836     0.04600
C735        C  0.70900642  0.99387730  0.16138108    -0.11400
C736        C  0.68951012  0.01624448  0.17869853     0.23900
C737        C  0.66827894  0.03756419  0.16102459    -0.12000
C738        C  0.66627893  0.03632281  0.12632915     0.05300
C739        C  0.68979603  0.01594242  0.21555571     0.27800
C740        C  0.66656662  0.99679908  0.23299864    -0.12700
C741        C  0.66601346  0.99679112  0.26766638     0.05800
C742        C  0.68888402  0.01585035  0.28547289    -0.08700
C743        C  0.71196534  0.03526429  0.26798875     0.06700
C744        C  0.71267700  0.03498028  0.23318188    -0.13000
Br745      Br  0.64190558  0.06851623  0.18465236    -0.05100
Br746      Br  0.73125765  0.95896797  0.10423874     0.00500
Br747      Br  0.63338939  0.97060191  0.29069547     0.01000
Br748      Br  0.74448786  0.06118771  0.20937771    -0.03400
Br749      Br  0.63836058  0.06694873  0.10271318     0.01100
Br750      Br  0.73868915  0.96528383  0.18545917    -0.02700
Br751      Br  0.63505690  0.97083156  0.20913273    -0.03600
Br752      Br  0.74090119  0.06411097  0.29141460     0.00400
C753        C  0.68952245  0.95810759  0.73427857     0.01800
C754        C  0.71165094  0.94383571  0.75717080     0.04600
C755        C  0.71135335  0.95346424  0.79038451    -0.11400
C756        C  0.68794933  0.97636367  0.80130877     0.23900
C757        C  0.66607932  0.99092734  0.77839035    -0.12000
C758        C  0.66682102  0.98186999  0.74508705     0.05300
C759        C  0.68450471  0.98305243  0.83721174     0.27800
C760        C  0.66560035  0.96180155  0.85741421    -0.12700
C761        C  0.66330290  0.96704893  0.89157735     0.05800
C762        C  0.67921728  0.99416124  0.90575342    -0.08700
C763        C  0.69672738  0.01635401  0.88519219     0.06700
C764        C  0.69966369  0.01061400  0.85115977    -0.13000
Br765      Br  0.63391201  0.02212543  0.79313342    -0.05100
Br766      Br  0.74004058  0.90877862  0.74389853     0.00500
Br767      Br  0.63980486  0.93596318  0.91908718     0.01000
Br768      Br  0.72444088  0.04045507  0.82345498    -0.03400
Br769      Br  0.63486259  0.00043534  0.71472686     0.01100
Br770      Br  0.74223700  0.93446916  0.82139512    -0.02700
Br771      Br  0.64269283  0.92547335  0.83800498    -0.03600
Br772      Br  0.71539492  0.05557619  0.90339325     0.00400
C773        C  0.65883418  0.73159115  0.01987732     0.01800
C774        C  0.65002507  0.75093375  0.99196399     0.04600
C775        C  0.65237767  0.78540555  0.99314414    -0.11400
C776        C  0.66513328  0.80055182  0.02142223     0.23900
C777        C  0.67259122  0.78136863  0.04951422    -0.12000
C778        C  0.66736388  0.74742668  0.04926671     0.05300
C779        C  0.67102217  0.83651887  0.02163899     0.27800
C780        C  0.69840541  0.84999317  0.00492605    -0.12700
C781        C  0.70316567  0.88419909  0.00351815     0.05800
C782        C  0.68148923  0.90503575  0.02053013    -0.08700
C783        C  0.65626490  0.89095360  0.04024321     0.06700
C784        C  0.65009853  0.85710187  0.03952064    -0.13000
Br785      Br  0.69129812  0.80136476  0.08802258    -0.05100
Br786      Br  0.63459720  0.73117919  0.95211143     0.00500
Br787      Br  0.73851861  0.90186441  0.97695533     0.01000
Br788      Br  0.61248739  0.83902102  0.06257125    -0.03400
Br789      Br  0.66808469  0.72320564  0.09017305     0.01100
Br790      Br  0.63835902  0.81214290  0.95603992    -0.02700
Br791      Br  0.72949486  0.82121916  0.98416827    -0.03600
Br792      Br  0.63137105  0.91752290  0.07024828     0.00400
loop_ 
_geom_bond_atom_site_label_1 
_geom_bond_atom_site_label_2 
_geom_bond_distance 
_geom_bond_site_symmetry_2 
_ccdc_geom_bond_type 
N1            N2   1.323       .  A
N1            C5   1.336       .  A
N1           Cu9   2.068       .  S
N2            C3   1.356   1_556  A
N2           Cu8   2.099   1_556  S
C3            C4   1.391       .  A
C3            H6   1.079       .  S
C4            C5   1.379   1_554  A
C4          C262   1.476       .  S
C5            H7   1.083       .  S
Cu8          N11   2.100       .  S
Cu9          N19   2.068       .  S
Cu10         N12   2.079       .  S
Cu10         N18   2.078       .  S
N11          N12   1.325   1_554  A
N11          C15   1.351       .  A
N12          C13   1.341       .  A
C13          C14   1.380   1_556  A
C13          H16   1.084       .  S
C14          C15   1.388       .  A
C14         C241   1.471       .  S
C15          H17   1.083       .  S
N18          N19   1.318       .  A
N18          C22   1.347       .  A
N19          C20   1.347       .  A
C20          C21   1.386       .  A
C20          H23   1.081       .  S
C21          C22   1.389       .  A
C21          C45   1.480       .  S
C22          H24   1.080       .  S
N25          N26   1.325       .  A
N25          C29   1.343       .  A
N25         Cu33   2.093       .  S
N26          C27   1.354       .  A
N26         Cu32   2.118       .  S
C27          C28   1.394       .  A
C27          H30   1.082   1_556  S
C28          C29   1.386       .  A
C28         C122   1.484   1_556  S
C29          H31   1.084       .  S
Cu32         N35   2.117       .  S
Cu33         N43   2.092       .  S
Cu34         N36   2.063       .  S
Cu34         N42   2.061       .  S
N35          N36   1.323       .  A
N35          C39   1.357   1_556  A
N36          C37   1.340       .  A
C37          C38   1.378   1_556  A
C37          H40   1.082       .  S
C38          C39   1.393       .  A
C38         C213   1.479       .  S
C39          H41   1.080       .  S
N42          N43   1.319       .  A
N42          C46   1.344       .  A
N43          C44   1.350       .  A
C44          C45   1.391       .  A
C44          H47   1.079       .  S
C45          C46   1.383       .  A
C46          H48   1.080       .  S
N49          N50   1.321       .  A
N49          C53   1.335       .  A
N49         Cu57   2.053       .  S
N50          C51   1.362       .  A
N50         Cu56   2.132       .  S
C51          C52   1.401       .  A
C51          H54   1.082       .  S
C52          C53   1.379       .  A
C52         C255   1.489       .  S
C53          H55   1.083       .  S
Cu56         N59   2.135       .  S
Cu57         N67   2.059       .  S
Cu58         N60   2.068       .  S
Cu58         N66   2.071       .  S
N59          N60   1.323       .  A
N59          C63   1.357       .  A
N60          C61   1.341       .  A
C61          C62   1.380       .  A
C61          H64   1.082       .  S
C62          C63   1.398       .  A
C62         C115   1.485   1_565  S
C63          H65   1.078   1_565  S
N66          N67   1.319       .  A
N66          C70   1.347       .  A
N67          C68   1.342       .  A
C68          C69   1.381       .  A
C68          H71   1.082       .  S
C69          C70   1.385       .  A
C69          C93   1.469       .  S
C70          H72   1.083       .  S
N73          N74   1.322   1_565  A
N73          C77   1.344       .  A
N73         Cu81   2.070       .  S
N74          C75   1.353       .  A
N74         Cu80   2.114       .  S
C75          C76   1.394       .  A
C75          H78   1.081       .  S
C76          C77   1.382   1_545  A
C76         C150   1.479       .  S
C77          H79   1.083       .  S
Cu80         N83   2.114       .  S
Cu81         N91   2.070       .  S
Cu82         N84   2.070       .  S
Cu82         N90   2.068       .  S
N83          N84   1.325   1_545  A
N83          C87   1.352       .  A
N84          C85   1.343   1_565  A
C85          C86   1.378       .  A
C85          H88   1.082   1_545  S
C86          C87   1.390       .  A
C86         C206   1.475       .  S
C87          H89   1.081       .  S
N90          N91   1.320       .  A
N90          C94   1.347       .  A
N91          C92   1.343       .  A
C92          C93   1.383       .  A
C92          H95   1.082       .  S
C93          C94   1.384       .  A
C94          H96   1.082       .  S
O97        Cu105   2.037   1_565  S
O97         C107   1.281       .  A
O98        Cu105   2.037   1_556  S
O98         C108   1.282       .  A
O99        Cu105   2.018       .  S
O99         C109   1.278       .  A
O100       Cu105   2.013   1_556  S
O100        C110   1.277   1_545  A
O101       Cu106   2.038   1_566  S
O101        C110   1.281       .  A
O102       Cu106   2.041       .  S
O102        C109   1.282       .  A
O103       Cu106   1.992       .  S
O103        C108   1.275   1_554  A
O104       Cu106   1.985   1_565  S
O104        C107   1.274       .  A
Cu105      Cu106   2.366       .  S
C107        C782   1.489       .  S
C108        C713   1.492       .  S
C109        C733   1.496       .  S
C110        C762   1.490       .  S
N111        C115   1.361   1_565  A
N111        C112   1.364   1_565  A
N111        C693   1.442       .  S
C112        C113   1.382       .  A
C112        C742   1.495       .  S
C113        C114   1.375       .  A
C113        H116   1.082       .  S
C114        C115   1.383       .  A
C114        H117   1.082       .  S
N118        C122   1.364       .  A
N118        C119   1.363       .  A
N118        C722   1.445   1_554  S
C119        C120   1.380       .  A
C119        C682   1.490       .  S
C120        C121   1.373       .  A
C120        H123   1.082       .  S
C121        C122   1.384       .  A
C121        H124   1.082       .  S
O125       Cu133   2.028   1_545  S
O125        C135   1.281       .  A
O126       Cu133   2.033       .  S
O126        C136   1.280       .  A
O127       Cu133   1.999   1_655  S
O127        C137   1.275       .  A
O128       Cu133   2.005       .  S
O128        C138   1.276       .  A
O129       Cu134   2.030       .  S
O129        C138   1.280       .  A
O130       Cu134   2.037   1_655  S
O130        C137   1.281       .  A
O131       Cu134   2.023       .  S
O131        C136   1.279       .  A
O132       Cu134   2.015   1_545  S
O132        C135   1.277       .  A
Cu133      Cu134   2.360       .  S
C135        C613   1.487       .  S
C136        C633   1.511       .  S
C137        C653   1.499       .  S
C138        C593   1.495       .  S
N139        C143   1.359       .  A
N139        C140   1.362       .  A
N139        C582   1.443       .  S
C140        C141   1.382       .  A
C140        C622   1.491       .  S
C141        C142   1.375       .  A
C141        H144   1.082       .  S
C142        C143   1.382       .  A
C142        H145   1.082       .  S
C143        C278   1.478       .  S
N146        C150   1.360       .  A
N146        C147   1.360       .  A
N146        C602   1.442       .  S
C147        C148   1.382       .  A
C147        C553   1.491       .  S
C148        C149   1.377       .  A
C148        H151   1.082       .  S
C149        C150   1.382       .  A
C149        H152   1.082       .  S
O153       Cu161   1.997       .  S
O153        C163   1.274       .  A
O154       Cu161   1.997   1_565  S
O154        C164   1.275       .  A
O155       Cu161   2.029       .  S
O155        C165   1.280       .  A
O156       Cu161   2.009   1_554  S
O156        C166   1.278       .  A
O157       Cu162   2.034   1_554  S
O157        C166   1.280       .  A
O158       Cu162   2.014       .  S
O158        C165   1.278       .  A
O159       Cu162   2.037   1_565  S
O159        C164   1.281       .  A
O160       Cu162   2.029       .  S
O160        C163   1.280       .  A
Cu161      Cu162   2.361       .  S
C163        C493   1.502       .  S
C164        C533   1.499       .  S
C165        C562   1.495       .  S
C166        C522   1.486       .  S
O167       Cu175   2.016       .  S
O167        C177   1.278       .  A
O168       Cu175   2.026   1_655  S
O168        C178   1.280       .  A
O169       Cu175   2.028   1_545  S
O169        C179   1.279       .  A
O170       Cu175   2.005       .  S
O170        C180   1.276       .  A
O171       Cu176   2.030       .  S
O171        C180   1.281       .  A
O172       Cu176   2.026   1_545  S
O172        C179   1.280       .  A
O173       Cu176   2.000   1_655  S
O173        C178   1.276       .  A
O174       Cu176   2.008       .  S
O174        C177   1.276       .  A
Cu175      Cu176   2.361       .  S
C177        C433   1.501       .  S
C178        C702   1.487       .  S
C179        C453   1.504       .  S
C180        C473   1.487       .  S
O181       Cu189   2.023       .  S
O181        C191   1.280       .  A
O182       Cu189   2.026   1_556  S
O182        C192   1.279       .  A
O183       Cu189   2.027   1_455  S
O183        C193   1.279   1_554  A
O184       Cu189   2.009       .  S
O184        C194   1.276       .  A
O185       Cu190   2.027   1_554  S
O185        C194   1.280       .  A
O186       Cu190   2.016   1_455  S
O186        C193   1.278       .  A
O187       Cu190   2.000       .  S
O187        C192   1.276       .  A
O188       Cu190   2.001   1_554  S
O188        C191   1.275       .  A
Cu189      Cu190   2.363   1_554  S
C191        C413   1.498       .  S
C192        C573   1.497       .  S
C193        C402   1.494   1_556  S
C194        C673   1.479       .  S
N195        C199   1.359       .  A
N195        C196   1.363       .  A
N195        C422   1.441       .  S
C196        C197   1.381       .  A
C196        C462   1.491       .  S
C197        C198   1.374       .  A
C197        H200   1.082       .  S
C198        C199   1.383       .  A
C198        H201   1.082       .  S
C199        C302   1.479   1_455  S
N202        C206   1.356       .  A
N202        C203   1.360       .  A
N202        C442   1.439       .  S
C203        C204   1.384       .  A
C203        C513   1.492       .  S
C204        C205   1.378       .  A
C204        H207   1.082       .  S
C205        C206   1.381       .  A
C205        H208   1.082       .  S
N209        C213   1.357       .  A
N209        C210   1.360       .  A
N209        C502   1.437       .  S
C210        C211   1.382       .  A
C210        C393   1.492       .  S
C211        C212   1.376       .  A
C211        H214   1.082       .  S
C212        C213   1.383       .  A
C212        H215   1.082       .  S
O216       Cu224   1.991       .  S
O216        C226   1.275       .  A
O217       Cu224   2.000   1_556  S
O217        C227   1.276   1_655  A
O218       Cu224   2.025   1_455  S
O218        C228   1.280       .  A
O219       Cu224   2.027       .  S
O219        C229   1.280       .  A
O220       Cu225   1.998   1_655  S
O220        C229   1.274   1_556  A
O221       Cu225   2.011       .  S
O221        C228   1.277   1_556  A
O222       Cu225   2.034       .  S
O222        C227   1.280       .  A
O223       Cu225   2.040   1_654  S
O223        C226   1.282       .  A
Cu224      Cu225   2.362   1_654  S
C226        C342   1.482       .  S
C227        C373   1.500       .  S
C228        C322   1.490       .  S
C229        C362   1.503       .  S
N230        C234   1.363       .  A
N230        C231   1.363       .  A
N230        C333   1.448       .  S
C231        C232   1.380       .  A
C231        C482   1.487       .  S
C232        C233   1.372       .  A
C232        H235   1.082       .  S
C233        C234   1.384       .  A
C233        H236   1.083       .  S
C234        C292   1.481   1_455  S
N237        C241   1.356       .  A
N237        C238   1.358       .  A
N237        C542   1.443       .  S
C238        C239   1.382       .  A
C238        C313   1.487       .  S
C239        C240   1.375       .  A
C239        H242   1.082       .  S
C240        C241   1.383       .  A
C240        H243   1.082       .  S
N244        C248   1.358       .  A
N244        C245   1.361       .  A
N244        C382   1.441       .  S
C245        C246   1.381       .  A
C245        C642   1.492       .  S
C246        C247   1.376       .  A
C246        H249   1.082       .  S
C247        C248   1.384       .  A
C247        H250   1.082       .  S
C248        C268   1.477       .  S
N251        C255   1.363       .  A
N251        C252   1.364       .  A
N251        C662   1.443       .  S
C252        C253   1.378       .  A
C252        C753   1.491       .  S
C253        C254   1.370       .  A
C253        H256   1.082       .  S
C254        C255   1.387       .  A
C254        H257   1.083       .  S
N258        C262   1.362       .  A
N258        C259   1.368       .  A
N258        C773   1.450       .  S
C259        C260   1.378       .  A
C259        C353   1.489       .  S
C260        C261   1.368       .  A
C260        H263   1.082       .  S
C261        C262   1.384       .  A
C261        H264   1.082       .  S
N265        N266   1.325   1_655  A
N265        C269   1.342   1_655  A
N265       Cu273   2.077       .  S
N266        C267   1.354       .  A
N266       Cu272   2.116       .  S
C267        C268   1.392       .  A
C267        H270   1.082       .  S
C268        C269   1.381       .  A
C269        H271   1.081   1_455  S
Cu272       N275   2.115       .  S
Cu273       N283   2.077       .  S
Cu274       N276   2.066       .  S
Cu274       N282   2.066       .  S
N275        N276   1.323   1_455  A
N275        C279   1.354       .  A
N276        C277   1.341       .  A
C277        C278   1.380   1_655  A
C277        H280   1.082       .  S
C278        C279   1.394       .  A
C279        H281   1.081       .  S
N282        N283   1.319       .  A
N282        C286   1.344       .  A
N283        C284   1.349       .  A
C284        C285   1.388       .  A
C284        H287   1.081       .  S
C285        C286   1.384       .  A
C285        C309   1.477       .  S
C286        H288   1.082       .  S
N289        N290   1.323       .  A
N289        C293   1.341       .  A
N289       Cu297   2.074       .  S
N290        C291   1.354       .  A
N290       Cu296   2.119       .  S
C291        C292   1.395       .  A
C291        H294   1.082   1_655  S
C292        C293   1.384       .  A
C293        H295   1.082       .  S
Cu296       N299   2.119       .  S
Cu297       N307   2.075       .  S
Cu298       N300   2.067       .  S
Cu298       N306   2.068       .  S
N299        N300   1.323       .  A
N299        C303   1.355       .  A
N300        C301   1.340       .  A
C301        C302   1.381       .  A
C301        H304   1.082       .  S
C302        C303   1.394       .  A
C303        H305   1.082   1_655  S
N306        N307   1.319       .  A
N306        C310   1.344       .  A
N307        C308   1.348       .  A
C308        C309   1.387       .  A
C308        H311   1.082       .  S
C309        C310   1.385       .  A
C310        H312   1.081       .  S
C313        C314   1.409       .  A
C313        C318   1.416       .  A
C314        C315   1.410       .  A
C314       Br326   1.924       .  S
C315        C316   1.410       .  A
C315       Br330   1.929       .  S
C316        C317   1.407       .  A
C316        C319   1.488       .  S
C317        C318   1.408       .  A
C317       Br325   1.930   1_554  S
C318       Br329   1.934   1_554  S
C319        C320   1.409       .  A
C319        C324   1.406   1_554  A
C320        C321   1.409       .  A
C320       Br331   1.930       .  S
C321        C322   1.416       .  A
C321       Br327   1.932       .  S
C322        C323   1.417   1_554  A
C323        C324   1.410       .  A
C323       Br332   1.926       .  S
C324       Br328   1.932       .  S
C333        C334   1.410   1_455  A
C333        C338   1.415       .  A
C334        C335   1.410       .  A
C334       Br346   1.920       .  S
C335        C336   1.410       .  A
C335       Br350   1.929       .  S
C336        C337   1.411   1_655  A
C336        C339   1.494       .  S
C337        C338   1.409       .  A
C337       Br345   1.931       .  S
C338       Br349   1.929       .  S
C339        C340   1.411       .  A
C339        C344   1.414   1_655  A
C340        C341   1.408       .  A
C340       Br351   1.931       .  S
C341        C342   1.412       .  A
C341       Br347   1.932       .  S
C342        C343   1.410   1_655  A
C343        C344   1.412       .  A
C343       Br352   1.929       .  S
C344       Br348   1.929       .  S
C353        C354   1.414   1_554  A
C353        C358   1.418       .  A
C354        C355   1.408       .  A
C354       Br366   1.922       .  S
C355        C356   1.406   1_556  A
C355       Br370   1.932       .  S
C356        C357   1.406       .  A
C356        C359   1.485       .  S
C357        C358   1.408       .  A
C357       Br365   1.931       .  S
C358       Br369   1.931       .  S
C359        C360   1.406       .  A
C359        C364   1.402       .  A
C360        C361   1.409   1_554  A
C360       Br371   1.935   1_554  S
C361        C362   1.423   1_556  A
C361       Br367   1.932       .  S
C362        C363   1.429       .  A
C363        C364   1.410       .  A
C363       Br372   1.936       .  S
C364       Br368   1.933       .  S
C373        C374   1.422   1_455  A
C373        C378   1.421       .  A
C374        C375   1.408       .  A
C374       Br386   1.932       .  S
C375        C376   1.404   1_655  A
C375       Br390   1.933       .  S
C376        C377   1.407       .  A
C376        C379   1.486       .  S
C377        C378   1.411       .  A
C377       Br385   1.933       .  S
C378       Br389   1.928       .  S
C379        C380   1.410       .  A
C379        C384   1.409   1_455  A
C380        C381   1.408       .  A
C380       Br391   1.930       .  S
C381        C382   1.411       .  A
C381       Br387   1.928       .  S
C382        C383   1.405   1_455  A
C383        C384   1.407       .  A
C383       Br392   1.917       .  S
C384       Br388   1.927       .  S
C393        C394   1.415   1_554  A
C393        C398   1.413       .  A
C394        C395   1.408       .  A
C394       Br406   1.934       .  S
C395        C396   1.408   1_556  A
C395       Br410   1.930       .  S
C396        C397   1.410       .  A
C396        C399   1.493       .  S
C397        C398   1.413       .  A
C397       Br405   1.930       .  S
C398       Br409   1.923       .  S
C399        C400   1.409       .  A
C399        C404   1.408   1_554  A
C400        C401   1.410       .  A
C400       Br411   1.932       .  S
C401        C402   1.418       .  A
C401       Br407   1.933       .  S
C402        C403   1.417   1_554  A
C403        C404   1.412       .  A
C403       Br412   1.927       .  S
C404       Br408   1.930       .  S
C413        C414   1.422       .  A
C413        C418   1.426       .  A
C414        C415   1.409   1_655  A
C414       Br426   1.934   1_655  S
C415        C416   1.405   1_455  A
C415       Br430   1.933       .  S
C416        C417   1.404       .  A
C416        C419   1.486       .  S
C417        C418   1.409       .  A
C417       Br425   1.933       .  S
C418       Br429   1.936       .  S
C419        C420   1.409       .  A
C419        C424   1.408   1_655  A
C420        C421   1.410       .  A
C420       Br431   1.928       .  S
C421        C422   1.408   1_655  A
C421       Br427   1.919       .  S
C422        C423   1.411       .  A
C423        C424   1.405       .  A
C423       Br432   1.929       .  S
C424       Br428   1.930       .  S
C433        C434   1.424   1_565  A
C433        C438   1.427       .  A
C434        C435   1.409       .  A
C434       Br446   1.936       .  S
C435        C436   1.405   1_545  A
C435       Br450   1.934       .  S
C436        C437   1.402       .  A
C436        C439   1.484   1_565  S
C437        C438   1.409       .  A
C437       Br445   1.933       .  S
C438       Br449   1.933       .  S
C439        C440   1.410   1_545  A
C439        C444   1.408       .  A
C440        C441   1.411       .  A
C440       Br451   1.927       .  S
C441        C442   1.408   1_565  A
C441       Br447   1.922       .  S
C442        C443   1.410       .  A
C443        C444   1.401       .  A
C443       Br452   1.931       .  S
C444       Br448   1.933       .  S
C453        C454   1.422   1_455  A
C453        C458   1.422       .  A
C454        C455   1.412   1_655  A
C454       Br466   1.927       .  S
C455        C456   1.405       .  A
C455       Br470   1.933   1_455  S
C456        C457   1.408       .  A
C456        C459   1.494       .  S
C457        C458   1.413       .  A
C457       Br465   1.932       .  S
C458       Br469   1.933       .  S
C459        C460   1.410       .  A
C459        C464   1.408   1_455  A
C460        C461   1.413       .  A
C460       Br471   1.929       .  S
C461        C462   1.412       .  A
C461       Br467   1.923       .  S
C462        C463   1.416   1_455  A
C463        C464   1.409       .  A
C463       Br472   1.933       .  S
C464       Br468   1.931       .  S
C473        C474   1.413       .  A
C473        C478   1.416   1_455  A
C474        C475   1.408       .  A
C474       Br486   1.923       .  S
C475        C476   1.408       .  A
C475       Br490   1.932       .  S
C476        C477   1.408   1_455  A
C476        C479   1.488       .  S
C477        C478   1.411       .  A
C477       Br485   1.930       .  S
C478       Br489   1.932       .  S
C479        C480   1.410       .  A
C479        C484   1.407   1_455  A
C480        C481   1.410       .  A
C480       Br491   1.929       .  S
C481        C482   1.410       .  A
C481       Br487   1.925       .  S
C482        C483   1.416   1_455  A
C483        C484   1.407       .  A
C483       Br492   1.934       .  S
C484       Br488   1.931       .  S
C493        C494   1.427       .  A
C493        C498   1.424   1_556  A
C494        C495   1.408       .  A
C494       Br506   1.933       .  S
C495        C496   1.402       .  A
C495       Br510   1.935       .  S
C496        C497   1.405   1_556  A
C496        C499   1.483       .  S
C497        C498   1.410       .  A
C497       Br505   1.933       .  S
C498       Br509   1.934       .  S
C499        C500   1.408   1_556  A
C499        C504   1.410       .  A
C500        C501   1.403       .  A
C500       Br511   1.931       .  S
C501        C502   1.409       .  A
C501       Br507   1.930       .  S
C502        C503   1.406   1_554  A
C503        C504   1.409       .  A
C503       Br512   1.920       .  S
C504       Br508   1.927       .  S
C513        C514   1.416       .  A
C513        C518   1.413       .  A
C514        C515   1.407       .  A
C514       Br526   1.934       .  S
C515        C516   1.408       .  A
C515       Br530   1.931       .  S
C516        C517   1.410       .  A
C516        C519   1.491       .  S
C517        C518   1.413       .  A
C517       Br525   1.929       .  S
C518       Br529   1.924       .  S
C519        C520   1.408       .  A
C519        C524   1.411       .  A
C520        C521   1.407       .  A
C520       Br531   1.931       .  S
C521        C522   1.414       .  A
C521       Br527   1.931       .  S
C522        C523   1.412       .  A
C523        C524   1.414       .  A
C523       Br532   1.926   1_545  S
C524       Br528   1.929   1_545  S
C533        C534   1.424       .  A
C533        C538   1.420   1_556  A
C534        C535   1.409       .  A
C534       Br546   1.936       .  S
C535        C536   1.404       .  A
C535       Br550   1.932       .  S
C536        C537   1.408   1_556  A
C536        C539   1.489   1_556  S
C537        C538   1.413       .  A
C537       Br545   1.931       .  S
C538       Br549   1.930       .  S
C539        C540   1.411   1_554  A
C539        C544   1.409       .  A
C540        C541   1.412       .  A
C540       Br551   1.926       .  S
C541        C542   1.407   1_556  A
C541       Br547   1.921       .  S
C542        C543   1.412       .  A
C543        C544   1.405       .  A
C543       Br552   1.930       .  S
C544       Br548   1.932       .  S
C553        C554   1.415       .  A
C553        C558   1.412       .  A
C554        C555   1.408   1_545  A
C554       Br566   1.933   1_545  S
C555        C556   1.408   1_565  A
C555       Br570   1.930       .  S
C556        C557   1.410       .  A
C556        C559   1.492       .  S
C557        C558   1.412       .  A
C557       Br565   1.930       .  S
C558       Br569   1.924       .  S
C559        C560   1.408   1_545  A
C559        C564   1.408       .  A
C560        C561   1.413       .  A
C560       Br571   1.930       .  S
C561        C562   1.419   1_565  A
C561       Br567   1.932       .  S
C562        C563   1.416       .  A
C563        C564   1.409       .  A
C563       Br572   1.927       .  S
C564       Br568   1.933       .  S
C573        C574   1.421       .  A
C573        C578   1.420       .  A
C574        C575   1.408       .  A
C574       Br586   1.934       .  S
C575        C576   1.405       .  A
C575       Br590   1.930       .  S
C576        C577   1.407       .  A
C576        C579   1.486       .  S
C577        C578   1.410       .  A
C577       Br585   1.933   1_655  S
C578       Br589   1.930   1_655  S
C579        C580   1.408       .  A
C579        C584   1.409   1_655  A
C580        C581   1.410       .  A
C580       Br591   1.928       .  S
C581        C582   1.410   1_655  A
C581       Br587   1.919       .  S
C582        C583   1.412       .  A
C583        C584   1.405       .  A
C583       Br592   1.930       .  S
C584       Br588   1.931       .  S
C593        C594   1.420       .  A
C593        C598   1.419       .  A
C594        C595   1.407       .  A
C594       Br606   1.925       .  S
C595        C596   1.404       .  A
C595       Br610   1.934       .  S
C596        C597   1.408   1_565  A
C596        C599   1.485       .  S
C597        C598   1.411   1_545  A
C597       Br605   1.931       .  S
C598       Br609   1.931   1_565  S
C599        C600   1.409       .  A
C599        C604   1.408   1_565  A
C600        C601   1.409       .  A
C600       Br611   1.928       .  S
C601        C602   1.409   1_565  A
C601       Br607   1.920       .  S
C602        C603   1.411       .  A
C603        C604   1.405       .  A
C603       Br612   1.929       .  S
C604       Br608   1.931       .  S
C613        C614   1.415   1_455  A
C613        C618   1.412       .  A
C614        C615   1.414       .  A
C614       Br626   1.930       .  S
C615        C616   1.410   1_655  A
C615       Br630   1.929       .  S
C616        C617   1.410       .  A
C616        C619   1.493       .  S
C617        C618   1.409       .  A
C617       Br625   1.931       .  S
C618       Br629   1.931       .  S
C619        C620   1.407   1_455  A
C619        C624   1.411       .  A
C620        C621   1.408   1_655  A
C620       Br631   1.930       .  S
C621        C622   1.416       .  A
C621       Br627   1.934   1_455  S
C622        C623   1.411       .  A
C623        C624   1.413       .  A
C623       Br632   1.924       .  S
C624       Br628   1.928       .  S
C633        C634   1.424       .  A
C633        C638   1.424       .  A
C634        C635   1.415       .  A
C634       Br646   1.933   1_455  S
C635        C636   1.407       .  A
C635       Br650   1.932   1_455  S
C636        C637   1.408       .  A
C636        C639   1.498       .  S
C637        C638   1.413       .  A
C637       Br645   1.935       .  S
C638       Br649   1.929       .  S
C639        C640   1.412       .  A
C639        C644   1.410       .  A
C640        C641   1.414       .  A
C640       Br651   1.929       .  S
C641        C642   1.411       .  A
C641       Br647   1.925       .  S
C642        C643   1.415       .  A
C643        C644   1.409       .  A
C643       Br652   1.934   1_455  S
C644       Br648   1.931   1_455  S
C653        C654   1.423       .  A
C653        C658   1.419       .  A
C654        C655   1.410       .  A
C654       Br666   1.935   1_565  S
C655        C656   1.405       .  A
C655       Br670   1.932   1_565  S
C656        C657   1.408       .  A
C656        C659   1.490       .  S
C657        C658   1.411       .  A
C657       Br665   1.931       .  S
C658       Br669   1.930       .  S
C659        C660   1.411   1_565  A
C659        C664   1.409       .  A
C660        C661   1.411   1_545  A
C660       Br671   1.927       .  S
C661        C662   1.408       .  A
C661       Br667   1.920   1_565  S
C662        C663   1.414       .  A
C663        C664   1.405       .  A
C663       Br672   1.930       .  S
C664       Br668   1.932       .  S
C673        C674   1.407       .  A
C673        C678   1.410   1_554  A
C674        C675   1.406       .  A
C674       Br686   1.924       .  S
C675        C676   1.411       .  A
C675       Br690   1.931       .  S
C676        C677   1.413   1_554  A
C676        C679   1.492       .  S
C677        C678   1.412       .  A
C677       Br685   1.929       .  S
C678       Br689   1.929       .  S
C679        C680   1.411       .  A
C679        C684   1.410   1_554  A
C680        C681   1.411       .  A
C680       Br691   1.931       .  S
C681        C682   1.411       .  A
C681       Br687   1.923       .  S
C682        C683   1.415   1_554  A
C683        C684   1.408       .  A
C683       Br692   1.934       .  S
C684       Br688   1.932       .  S
C693        C694   1.410       .  A
C693        C698   1.413   1_565  A
C694        C695   1.410       .  A
C694       Br706   1.921       .  S
C695        C696   1.409       .  A
C695       Br710   1.928       .  S
C696        C697   1.407   1_565  A
C696        C699   1.483       .  S
C697        C698   1.403       .  A
C697       Br705   1.932       .  S
C698       Br709   1.931       .  S
C699        C700   1.406       .  A
C699        C704   1.407       .  A
C700        C701   1.408       .  A
C700       Br711   1.930       .  S
C701        C702   1.417       .  A
C701       Br707   1.933       .  S
C702        C703   1.413   1_565  A
C703        C704   1.407   1_545  A
C703       Br712   1.923       .  S
C704       Br708   1.931   1_565  S
C713        C714   1.415   1_556  A
C713        C718   1.420       .  A
C714        C715   1.411       .  A
C714       Br726   1.932       .  S
C715        C716   1.409   1_554  A
C715       Br730   1.924       .  S
C716        C717   1.406       .  A
C716        C719   1.492       .  S
C717        C718   1.410       .  A
C717       Br725   1.930       .  S
C718       Br729   1.934       .  S
C719        C720   1.409   1_556  A
C719        C724   1.410       .  A
C720        C721   1.408       .  A
C720       Br731   1.931       .  S
C721        C722   1.412   1_554  A
C721       Br727   1.929       .  S
C722        C723   1.409       .  A
C723        C724   1.412       .  A
C723       Br732   1.920       .  S
C724       Br728   1.928       .  S
C733        C734   1.417   1_545  A
C733        C738   1.414       .  A
C734        C735   1.413       .  A
C734       Br746   1.931       .  S
C735        C736   1.409   1_565  A
C735       Br750   1.931       .  S
C736        C737   1.411       .  A
C736        C739   1.498       .  S
C737        C738   1.414       .  A
C737       Br745   1.929       .  S
C738       Br749   1.929       .  S
C739        C740   1.409   1_545  A
C739        C744   1.412       .  A
C740        C741   1.409       .  A
C740       Br751   1.930       .  S
C741        C742   1.416   1_565  A
C741       Br747   1.934       .  S
C742        C743   1.412       .  A
C743        C744   1.415       .  A
C743       Br752   1.925       .  S
C744       Br748   1.927       .  S
C753        C754   1.410       .  A
C753        C758   1.416       .  A
C754        C755   1.413       .  A
C754       Br766   1.925       .  S
C755        C756   1.412       .  A
C755       Br770   1.928       .  S
C756        C757   1.409       .  A
C756        C759   1.497       .  S
C757        C758   1.410       .  A
C757       Br765   1.930   1_565  S
C758       Br769   1.933   1_565  S
C759        C760   1.412       .  A
C759        C764   1.410   1_565  A
C760        C761   1.412       .  A
C760       Br771   1.930       .  S
C761        C762   1.413       .  A
C761       Br767   1.930       .  S
C762        C763   1.414   1_565  A
C763        C764   1.413       .  A
C763       Br772   1.930       .  S
C764       Br768   1.929       .  S
C773        C774   1.416   1_554  A
C773        C778   1.411       .  A
C774        C775   1.414       .  A
C774       Br786   1.925       .  S
C775        C776   1.412   1_556  A
C775       Br790   1.931       .  S
C776        C777   1.406       .  A
C776        C779   1.489       .  S
C777        C778   1.403       .  A
C777       Br785   1.931       .  S
C778       Br789   1.920       .  S
C779        C780   1.410       .  A
C779        C784   1.409       .  A
C780        C781   1.411       .  A
C780       Br791   1.932   1_554  S
C781        C782   1.415       .  A
C781       Br787   1.929   1_554  S
C782        C783   1.417       .  A
C783        C784   1.406       .  A
C783       Br792   1.935       .  S
C784       Br788   1.932       .  S
