geometry optimzed in LAMMPS
_audit_creation_date              2020-11-30 
_audit_creation_method            'lammps2cif' 
_symmetry_space_group_name_H-M    'P1' 
_symmetry_Int_Tables_number       1 
_symmetry_cell_setting            triclinic 
loop_ 
_symmetry_equiv_pos_as_xyz 
  x,y,z 
_cell_length_a                    40.21089266813409 
_cell_length_b                    40.41200149850399 
_cell_length_c                    39.93969430506758 
_cell_angle_alpha                 89.62092310616217 
_cell_angle_beta                  91.59050693177817 
_cell_angle_gamma                 90.11635445930082 
loop_ 
_atom_site_label 
_atom_site_type_symbol 
_atom_site_fract_x 
_atom_site_fract_y 
_atom_site_fract_z 
_atom_site_charge 
O1          O  0.71883155  0.75595350  0.80259435    -0.88300
C2          C  0.73070726  0.67265520  0.74863711     0.87730
Mg3        Mg  0.69233999  0.79718268  0.78282745     1.58150
O4          O  0.80214073  0.72135056  0.75672914    -0.88030
O5          O  0.76900130  0.74434192  0.82241910    -0.75360
C6          C  0.74926395  0.81548207  0.62942375     0.92780
O7          O  0.66942418  0.72278609  0.74768876    -0.75180
O8          O  0.72330791  0.82168862  0.64568348    -0.82680
Mg9        Mg  0.69459785  0.70895865  0.79807472     1.57960
C10         C  0.86054428  0.74190270  0.67798436     0.92700
O11         O  0.71578597  0.69470732  0.85054380    -0.80940
H12         H  0.83626399  0.74428465  0.78570094    -0.06290
C13         C  0.74755607  0.73127728  0.67112651     0.87640
O14         O  0.74150999  0.82218415  0.76857744    -0.75460
O15         O  0.73663761  0.69136286  0.77250018    -0.88220
O16         O  0.84990304  0.71774084  0.69532151    -0.81030
C17         C  0.81627742  0.63339980  0.75391535     0.92820
C18         C  0.74048069  0.67799801  0.86182753     0.92670
Mg19       Mg  0.79585275  0.78481903  0.69425580     1.57950
O20         O  0.77449913  0.80098990  0.64280266    -0.80950
O21         O  0.82103475  0.77083017  0.74478058    -0.75190
O22         O  0.79875792  0.64352357  0.77790736    -0.81030
O23         O  0.64759278  0.72561266  0.82184693    -0.82740
O24         O  0.69142667  0.84960829  0.71387737    -0.81060
C25         C  0.82067012  0.74508003  0.76321925     0.87110
O26         O  0.75369222  0.80282944  0.71919403    -0.88200
O27         O  0.77165993  0.73804247  0.68986850    -0.88310
O28         O  0.72113991  0.74858420  0.67023923    -0.75370
Mg29       Mg  0.78334306  0.69501434  0.79821105     1.57970
O30         O  0.82433555  0.65207368  0.72979527    -0.82740
H31         H  0.74230014  0.78410139  0.83685817    -0.06470
O32         O  0.68826785  0.77240544  0.73600895    -0.88010
H33         H  0.65389022  0.74971162  0.70716800    -0.06290
H34         H  0.78137685  0.83736955  0.74240671    -0.06470
C35         C  0.66961671  0.74874452  0.72954990     0.87080
C36         C  0.74296978  0.76221789  0.82146714     0.87670
C37         C  0.75962349  0.82163052  0.74298362     0.87710
H38         H  0.74853053  0.70926475  0.65595149    -0.06450
O39         O  0.74904806  0.67197003  0.72321186    -0.75470
Mg40       Mg  0.70637963  0.79804865  0.69361886     1.58000
H41         H  0.70882012  0.65709172  0.74902343    -0.06460
C42         C  0.63016377  0.75107792  0.81509363     0.92700
O43         O  0.66621863  0.84250339  0.76251190    -0.82700
C44         C  0.67491350  0.86074126  0.73819415     0.92760
O45         O  0.76460347  0.66992394  0.84375493    -0.82690
Mg46       Mg  0.79847851  0.69698257  0.70986749     1.58180
O47         O  0.64192224  0.77601286  0.79954161    -0.81020
O48         O  0.84215332  0.76635340  0.66963116    -0.82710
C49         C  0.63322796  0.99918714  0.75445154    -0.02440
O50         O  0.78575892  0.29216703  0.78928811    -0.88300
C51         C  0.79097588  0.27004504  0.69139469     0.87730
Mg52       Mg  0.79124188  0.25493999  0.82693129     1.58150
O53         O  0.71035657  0.28531945  0.71733134    -0.88030
O54         O  0.74793837  0.32811604  0.77224768    -0.75360
C55         C  0.69426643  0.13109063  0.77392483     0.92780
O56         O  0.82948870  0.23731532  0.75330571    -0.75180
O57         O  0.72089540  0.13574751  0.79130252    -0.82680
Mg58       Mg  0.82321021  0.29394872  0.75192282     1.57960
C59         C  0.63034867  0.22872653  0.69199243     0.92700
O60         O  0.82096313  0.35115639  0.75049715    -0.80940
H61         H  0.67788808  0.31593478  0.73800476    -0.06290
C62         C  0.73475771  0.18858928  0.71113210     0.87640
O63         O  0.73438341  0.25055124  0.83090931    -0.75460
O64         O  0.78454346  0.28889962  0.71469209    -0.88220
O65         O  0.65493614  0.24349807  0.67882814    -0.81030
C66         C  0.72770019  0.31041418  0.63217191     0.92820
C67         C  0.80605131  0.37400809  0.73384064     0.92670
Mg68       Mg  0.67846295  0.21154533  0.75512476     1.57950
O69         O  0.67925525  0.15479730  0.75864859    -0.80950
O70         O  0.67306498  0.26801424  0.75252278    -0.75190
O71         O  0.74215067  0.32484561  0.65698588    -0.81030
O72         O  0.86719647  0.29637960  0.78927536    -0.82740
O73         O  0.76111510  0.17881740  0.84761299    -0.81060
C74         C  0.68659751  0.29079894  0.73553493     0.87110
O75         O  0.71783796  0.21568315  0.79180910    -0.88200
O76         O  0.71586572  0.21164203  0.71764903    -0.88310
O77         O  0.75339673  0.17511962  0.73344957    -0.75370
Mg78       Mg  0.74533676  0.32463657  0.71477700     1.57970
O79         O  0.71022036  0.28443387  0.63595286    -0.82740
H80         H  0.76277123  0.32209524  0.82088653    -0.06470
O81         O  0.79197902  0.21871592  0.78766920    -0.88010
H82         H  0.82464038  0.18888870  0.76612864    -0.06290
H83         H  0.68654593  0.23529390  0.82426580    -0.06470
C84         C  0.81580021  0.21388527  0.76933032     0.87080
C85         C  0.76583509  0.31457054  0.79523148     0.87670
C86         C  0.71187438  0.23345755  0.81607803     0.87710
H87         H  0.73653895  0.18069836  0.68543240    -0.06450
O88         O  0.76885966  0.25207449  0.67707220    -0.75470
Mg89       Mg  0.75690301  0.17930524  0.79049278     1.58000
H90         H  0.81647829  0.26787399  0.68381649    -0.06460
C91         C  0.87227694  0.27546382  0.81278688     0.92700
O92         O  0.79480669  0.21670569  0.87001241    -0.82700
C93         C  0.77596400  0.19151078  0.87305853     0.92760
O94         O  0.78103128  0.36830191  0.71449311    -0.82690
Mg95       Mg  0.71195886  0.24785496  0.67945787     1.58180
O96         O  0.84820271  0.25949314  0.82561383    -0.81020
O97         O  0.63451672  0.20965102  0.71729021    -0.82710
C98         C  0.87558954  0.50168914  0.74528448    -0.02440
C99         C  0.75340219  0.87548235  0.49543206    -0.02440
O100        O  0.69123707  0.72317876  0.23604103    -0.88300
C101        C  0.74822255  0.73158810  0.32069118     0.87730
Mg102      Mg  0.70884600  0.69843791  0.19325305     1.58150
O103        O  0.74144930  0.80381971  0.27253554    -0.88030
O104        O  0.67369036  0.77267112  0.24907180    -0.75360
C105        C  0.86358331  0.75292482  0.17793387     0.92780
O106        O  0.74386259  0.67201093  0.26803136    -0.75180
O107        O  0.84463722  0.72874749  0.17038529    -0.82680
Mg108      Mg  0.69530647  0.69741978  0.28256668     1.57960
C109        C  0.82000490  0.86311066  0.25218938     0.92700
O110        O  0.64411072  0.71836465  0.29916855    -0.80940
H111        H  0.71317494  0.83816506  0.24941395    -0.06290
C112        C  0.82426708  0.75006835  0.26280839     0.87640
O113        O  0.72430103  0.74824835  0.17045479    -0.75460
O114        O  0.72371093  0.73797904  0.30228217    -0.88220
O115        O  0.80365472  0.85188391  0.27675142    -0.81030
C116        C  0.74688717  0.81603107  0.36219773     0.92820
C117        C  0.63541192  0.74273332  0.31706902     0.92670
Mg118      Mg  0.80237859  0.79914557  0.20907412     1.57950
O119        O  0.85360607  0.77781367  0.19433162    -0.80950
O120        O  0.75307114  0.82389167  0.22300485    -0.75190
O121        O  0.72260916  0.79831786  0.35163805    -0.81030
O122        O  0.66850362  0.65313151  0.26183133    -0.82740
O123        O  0.77728002  0.69559078  0.14258265    -0.81060
C124        C  0.73509164  0.82276035  0.24871574     0.87110
O125        O  0.77504541  0.75808824  0.18986747    -0.88200
O126        O  0.80666183  0.77446566  0.25613751    -0.88310
O127        O  0.82341507  0.72420112  0.24485597    -0.75370
Mg128      Mg  0.70031947  0.78492083  0.29911676     1.57970
O129        O  0.77027479  0.82488902  0.34338140    -0.82740
H130        H  0.65685144  0.74733215  0.20827924    -0.06470
O131        O  0.75591393  0.69275039  0.21895120    -0.88010
H132        H  0.78316297  0.65709162  0.24116965    -0.06290
H133        H  0.75201510  0.78766195  0.15630081    -0.06470
C134        C  0.76171199  0.67309313  0.24227440     0.87080
C135        C  0.67302749  0.74734225  0.23035653     0.87670
C136        C  0.75090581  0.76534667  0.17131191     0.87710
H137        H  0.83994137  0.75031024  0.28524238    -0.06450
O138        O  0.77395211  0.75006721  0.32175113    -0.75470
Mg139      Mg  0.79826875  0.71084456  0.19437637     1.58000
H140        H  0.74804065  0.70930159  0.33580939    -0.06460
C141        C  0.67597811  0.63537852  0.23697399     0.92700
O142        O  0.72568184  0.67571752  0.14509550    -0.82700
C143        C  0.75185887  0.68172513  0.12896683     0.92760
O144        O  0.65538163  0.76621655  0.32420273    -0.82690
Mg145      Mg  0.78837861  0.80012485  0.29765145     1.58180
O146        O  0.69270998  0.64658808  0.21266893    -0.81020
O147        O  0.82812452  0.84503459  0.22784662    -0.82710
C148        C  0.75086766  0.62110286  0.99635485    -0.02440
C149        C  0.50358632  0.75427317  0.37984068    -0.02440
C150        C  0.13061512  0.99975915  0.75026947    -0.02440
C151        C  0.75255806  0.12600562  0.00384395    -0.02440
C152        C  0.37112496  0.49855185  0.74784047    -0.02440
C153        C  0.74892706  0.37425032  0.50148731    -0.02440
C154        C  0.62582539  0.49917110  0.25230043    -0.02440
C155        C  0.24918230  0.62617590  0.50068488    -0.02440
C156        C  0.99557089  0.74627765  0.12015086    -0.02440
O157        O  0.28842632  0.78712159  0.28568299    -0.88300
C158        C  0.28761081  0.76896417  0.18643965     0.87730
Mg159      Mg  0.29209301  0.74844386  0.32198872     1.58150
O160        O  0.20946777  0.78840443  0.21727116    -0.88030
O161        O  0.25249120  0.82615619  0.27207016    -0.75360
C162        C  0.18859262  0.63272970  0.26519983     0.92780
O163        O  0.32592061  0.73054166  0.24600778    -0.75180
O164        O  0.21477417  0.63530815  0.28353836    -0.82680
Mg165      Mg  0.32386155  0.78729876  0.24671655     1.57960
C166        C  0.12581470  0.73694989  0.19135017     0.92700
O167        O  0.32608606  0.84493120  0.24660197    -0.80940
H168        H  0.17989487  0.81977536  0.24094018    -0.06290
C169        C  0.22891785  0.69165172  0.20569502     0.87640
O170        O  0.23530637  0.74867304  0.32696199    -0.75460
O171        O  0.28363071  0.78694414  0.21099649    -0.88220
O172        O  0.14910934  0.75338947  0.17789984    -0.81030
C173        C  0.22527607  0.81600838  0.13283258     0.92820
C174        C  0.31156755  0.86959609  0.23225494     0.92670
Mg175      Mg  0.17534028  0.71480017  0.25237120     1.57950
O176        O  0.17420622  0.65788243  0.25183060    -0.80950
O177        O  0.17268619  0.77153421  0.25320010    -0.75190
O178        O  0.24197177  0.82822721  0.15740104    -0.81030
O179        O  0.36775158  0.78429482  0.28354767    -0.82740
O180        O  0.25625724  0.67347434  0.34203860    -0.81060
C181        C  0.18691259  0.79434475  0.23682040     0.87110
O182        O  0.21545552  0.71518507  0.28809875    -0.88200
O183        O  0.21091458  0.71501243  0.21362300    -0.88310
O184        O  0.24713622  0.67616823  0.22706986    -0.75370
Mg185      Mg  0.24701846  0.82517359  0.21472494     1.57970
O186        O  0.20554206  0.79172399  0.13635792    -0.82740
H187        H  0.26949120  0.81743145  0.31960023    -0.06470
O188        O  0.28930791  0.71360902  0.28212291    -0.88010
H189        H  0.31869784  0.68229243  0.25817430    -0.06290
H190        H  0.18641728  0.73688292  0.32131868    -0.06470
C191        C  0.31175270  0.70772007  0.26242586     0.87080
C192        C  0.27062053  0.81065988  0.29351445     0.87670
C193        C  0.21135130  0.73321847  0.31260695     0.87710
H194        H  0.23019036  0.68508377  0.17956522    -0.06450
O195        O  0.26358390  0.75351939  0.17221674    -0.75470
Mg196      Mg  0.25211587  0.67677387  0.28442856     1.58000
H197        H  0.31248476  0.76536629  0.17754168    -0.06460
C198        C  0.37304970  0.76357336  0.30729395     0.92700
O199        O  0.29276988  0.70961446  0.36330562    -0.82700
C200        C  0.27278737  0.68546125  0.36686734     0.92760
O201        O  0.28509651  0.86610555  0.21446722    -0.82690
Mg202      Mg  0.20679509  0.75327838  0.17736450     1.58180
O203        O  0.34965458  0.74730686  0.32077584    -0.81020
O204        O  0.13121692  0.71693929  0.21564649    -0.82710
C205        C  0.25053768  0.87391034  0.00093538    -0.02440
C206        C  0.49838243  0.25265972  0.62697402    -0.02440
O207        O  0.28965184  0.21599876  0.71670641    -0.88300
C208        C  0.26727602  0.31256710  0.70957834     0.87730
Mg209      Mg  0.25262263  0.17857614  0.71333237     1.58150
O210        O  0.28643751  0.28479258  0.79065250    -0.88030
O211        O  0.32824964  0.23109786  0.75335093    -0.75360
C212        C  0.13166387  0.22929162  0.81025784     0.92780
O213        O  0.23154685  0.25200515  0.67372493    -0.75180
O214        O  0.13513769  0.21251787  0.78375237    -0.82680
Mg215      Mg  0.28854942  0.25376255  0.67838480     1.57960
C216        C  0.23334642  0.30981873  0.87065889     0.92700
O217        O  0.34580423  0.25653126  0.67808681    -0.80940
H218        H  0.31853131  0.26309269  0.82294199    -0.06290
C219        C  0.18803771  0.29161233  0.76745080     0.87640
O220        O  0.25111124  0.17407690  0.77046182    -0.75460
O221        O  0.28633126  0.28930649  0.71639910    -0.88220
O222        O  0.24733401  0.32362191  0.84592850    -0.81030
C223        C  0.31110780  0.36841972  0.77045583     0.92820
C224        C  0.37048071  0.27101212  0.69254927     0.92670
Mg225      Mg  0.21366321  0.24718901  0.82457816     1.57950
O226        O  0.15613908  0.24398133  0.82501461    -0.80950
O227        O  0.27058114  0.24902211  0.82861942    -0.75190
O228        O  0.32471278  0.34380721  0.75660243    -0.81030
O229        O  0.28828591  0.21757418  0.63600277    -0.82740
O230        O  0.17589269  0.15652692  0.74470957    -0.81060
C231        C  0.29289950  0.26606007  0.81458919     0.87110
O232        O  0.21527639  0.21135284  0.78622875    -0.88200
O233        O  0.21207881  0.28495230  0.78628788    -0.88310
O234        O  0.17349607  0.26970795  0.74968068    -0.75370
Mg235      Mg  0.32449620  0.28758285  0.75504652     1.57970
O236        O  0.28582833  0.36510304  0.78867005    -0.82740
H237        H  0.32128777  0.18369207  0.73829931    -0.06470
O238        O  0.21523701  0.21647127  0.71169338    -0.88010
H239        H  0.18343346  0.23833184  0.67920859    -0.06290
H240        H  0.23690419  0.17943407  0.81843796    -0.06470
C241        C  0.20900091  0.23522722  0.68772168     0.87080
C242        C  0.31355491  0.20920667  0.73568047     0.87670
C243        C  0.23399008  0.18775720  0.79274432     0.87710
H244        H  0.18008104  0.31707162  0.76498077    -0.06450
O245        O  0.24985459  0.32622503  0.73162581    -0.75470
Mg246      Mg  0.17716710  0.21325321  0.74736842     1.58000
H247        H  0.26422644  0.32049319  0.68376993    -0.06460
C248        C  0.26981195  0.19229436  0.63205115     0.92700
O249        O  0.21502099  0.13663233  0.71201187    -0.82700
C250        C  0.18949935  0.13251358  0.72975798     0.92760
O251        O  0.36714874  0.28813503  0.71885942    -0.82690
Mg252      Mg  0.24882011  0.32265246  0.78875934     1.58180
O253        O  0.25474532  0.17863505  0.65620346    -0.81020
O254        O  0.21530469  0.28401578  0.86745677    -0.82710
C255        C  0.00380314  0.24525561  0.87551037    -0.02440
O256        O  0.78470714  0.21140739  0.21448878    -0.88300
C257        C  0.68709084  0.20797655  0.23657358     0.87730
Mg258      Mg  0.82363806  0.20826733  0.25151832     1.58150
O259        O  0.71482986  0.28725983  0.21553379    -0.88030
O260        O  0.76803016  0.24721115  0.17584918    -0.75360
C261        C  0.77406257  0.31106295  0.37076635     0.92780
O262        O  0.74909218  0.17204789  0.27379892    -0.75180
O263        O  0.79284716  0.28584291  0.36825701    -0.82680
Mg264      Mg  0.74602120  0.17472432  0.21641169     1.57960
C265        C  0.69195649  0.36874449  0.26879358     0.92700
O266        O  0.74261286  0.17324857  0.15886884    -0.80940
H267        H  0.73552938  0.31774193  0.18240169    -0.06290
C268        C  0.71091467  0.26724766  0.31445351     0.87640
O269        O  0.82837278  0.26501682  0.25186627    -0.75460
O270        O  0.71061837  0.21349786  0.21799025    -0.88220
O271        O  0.67742025  0.34441912  0.25429168    -0.81030
C272        C  0.62944801  0.26738561  0.19101359     0.92820
C273        C  0.72761132  0.18683555  0.13378956     0.92670
Mg274      Mg  0.75521314  0.32196134  0.28760390     1.57950
O275        O  0.75915670  0.32344143  0.34500375    -0.80950
O276        O  0.75182979  0.32471476  0.23034467    -0.75190
O277        O  0.65391164  0.25240965  0.17818972    -0.81030
O278        O  0.78205139  0.13161750  0.21741598    -0.82740
O279        O  0.84716116  0.24328008  0.32546030    -0.81060
C280        C  0.73357886  0.31041381  0.20835774     0.87110
O281        O  0.79085862  0.28316977  0.28612948    -0.88200
O282        O  0.71674527  0.28499595  0.28988943    -0.88310
O283        O  0.73352891  0.25043970  0.32954853    -0.75370
Mg284      Mg  0.71111312  0.25001036  0.17870427     1.57970
O285        O  0.63385716  0.28743556  0.21523904    -0.82740
H286        H  0.81597426  0.23255560  0.18265333    -0.06470
O287        O  0.78613173  0.20930548  0.28913947    -0.88010
H288        H  0.76463534  0.17908228  0.32198604    -0.06290
H289        H  0.82292898  0.31340996  0.26375241    -0.06470
C290        C  0.76703907  0.18634801  0.29606435     0.87080
C291        C  0.79058607  0.22996433  0.19052339     0.87670
C292        C  0.81449748  0.28827910  0.26755664     0.87710
H293        H  0.68558170  0.26507269  0.32259738    -0.06450
O294        O  0.67320832  0.23089693  0.25269982    -0.75470
Mg295      Mg  0.79037089  0.24711252  0.32598553     1.58000
H296        H  0.67888094  0.18273475  0.24011477    -0.06460
C297        C  0.80851450  0.12718529  0.23505861     0.92700
O298        O  0.86740296  0.20775653  0.28906837    -0.82700
C299        C  0.87166860  0.22796361  0.31312844     0.92760
O300        O  0.70970079  0.21249027  0.13681272    -0.82690
Mg301      Mg  0.67758500  0.28750508  0.25302858     1.58180
O302        O  0.82365957  0.15088919  0.25004478    -0.81020
O303        O  0.71855286  0.36498998  0.28651662    -0.82710
C304        C  0.87463090  0.99761893  0.24501463    -0.02440
C305        C  0.00429383  0.25336213  0.37544772    -0.02440
O306        O  0.30530638  0.22559201  0.26126304    -0.88300
C307        C  0.25220803  0.23937569  0.17513591     0.87730
Mg308      Mg  0.28380727  0.19819302  0.30141246     1.58150
O309        O  0.25982409  0.31075346  0.22384808    -0.88030
O310        O  0.32482437  0.27522325  0.25037915    -0.75360
C311        C  0.13429715  0.26465657  0.31700328     0.92780
O312        O  0.25197761  0.17838949  0.22539940    -0.75180
O313        O  0.15042102  0.23823958  0.32360032    -0.82680
Mg314      Mg  0.30270954  0.20254610  0.21362928     1.57960
C315        C  0.18320617  0.37157970  0.24358249     0.92700
O316        O  0.35538016  0.22318613  0.19971323    -0.80940
H317        H  0.28977555  0.34260766  0.24813861    -0.06290
C318        C  0.17374158  0.26007872  0.23226561     0.87640
O319        O  0.27094356  0.24705963  0.32719287    -0.75460
O320        O  0.27665320  0.24491840  0.19385642    -0.88220
O321        O  0.19658104  0.35923335  0.21782574    -0.81030
C322        C  0.25703605  0.32497803  0.13426059     0.92820
C323        C  0.36572656  0.24784126  0.18266732     0.92670
Mg324      Mg  0.19934969  0.30613542  0.28729775     1.57950
O325        O  0.14683833  0.28900474  0.30139012    -0.80950
O326        O  0.24993157  0.32804296  0.27455784    -0.75190
O327        O  0.28179903  0.30923542  0.14709306    -0.81030
O328        O  0.32773465  0.15614160  0.23378859    -0.82740
O329        O  0.21470497  0.19984398  0.35279533    -0.81060
C330        C  0.26715458  0.32811311  0.24838734     0.87110
O331        O  0.22260676  0.26224199  0.30553227    -0.88200
O332        O  0.19330237  0.28282139  0.23950941    -0.88310
O333        O  0.17234639  0.23360655  0.24955046    -0.75370
Mg334      Mg  0.30146597  0.29135512  0.19933725     1.57970
O335        O  0.23142161  0.33182325  0.15080010    -0.82740
H336        H  0.33855350  0.24819291  0.29152032    -0.06470
O337        O  0.23756196  0.19706101  0.27442743    -0.88010
H338        H  0.20985099  0.16429493  0.24864022    -0.06290
H339        H  0.24583459  0.28766894  0.34208196    -0.06470
C340        C  0.23219689  0.17921400  0.24976285     0.87080
C341        C  0.32366060  0.24926991  0.26858429     0.87670
C342        C  0.24606628  0.26642412  0.32578136     0.87710
H343        H  0.15831271  0.26224978  0.20975878    -0.06450
O344        O  0.22670644  0.25802445  0.17424325    -0.75470
Mg345      Mg  0.19571119  0.21707982  0.29987558     1.58000
H346        H  0.25211234  0.21742930  0.15979836    -0.06460
C347        C  0.31825806  0.13695731  0.25706825     0.92700
O348        O  0.26152548  0.17200994  0.34534010    -0.82700
C349        C  0.23843699  0.18175556  0.36413838     0.92760
O350        O  0.34721282  0.27244434  0.17545052    -0.82690
Mg351      Mg  0.21263640  0.30787997  0.19773717     1.58180
O352        O  0.29915026  0.14684282  0.27997573    -0.81020
O353        O  0.17806980  0.35464542  0.26982369    -0.82710
C354        C  0.24967343  0.37999030  0.99812561    -0.02440
C355        C  0.37350328  0.00168226  0.24984277    -0.02440
O356        O  0.99552719  0.97359716  0.55438031    -0.88300
C357        C  0.07621185  0.98416178  0.49706017     0.87730
Mg358      Mg  0.95184372  0.94972891  0.53621215     1.58150
O359        O  0.03098717  0.05715805  0.50621530    -0.88030
O360        O  0.01011051  0.02258547  0.57333042    -0.75360
C361        C  0.92559097  0.01338045  0.38381535     0.92780
O362        O  0.02357813  0.92555942  0.49807244    -0.75180
O363        O  0.91949904  0.98834529  0.40211103    -0.82680
Mg364      Mg  0.04145383  0.94808762  0.54807418     1.57960
C365        C  0.00608509  0.11839114  0.42985274     0.92700
O366        O  0.05959281  0.96750221  0.60010766    -0.80940
H367        H  0.01090367  0.09037675  0.53650893    -0.06290
C368        C  0.01264333  0.00640932  0.42124070     0.87640
O369        O  0.92814327  0.00006776  0.52326896    -0.75460
O370        O  0.05964449  0.99033091  0.52194777    -0.88220
O371        O  0.03218257  0.10489833  0.44273617    -0.81030
C372        C  0.11997135  0.06797654  0.49927812     0.92820
C373        C  0.07724421  0.99142109  0.61144843     0.92670
Mg374      Mg  0.96219934  0.05530221  0.44728211     1.57950
O375        O  0.94290157  0.03768338  0.39475815    -0.80950
O376        O  0.98071343  0.07715658  0.49730487    -0.75190
O377        O  0.10868694  0.05273091  0.52473794    -0.81030
O378        O  0.02368618  0.90034263  0.57189225    -0.82740
O379        O  0.89541435  0.95298460  0.46872159    -0.81060
C380        C  0.00806413  0.07578486  0.51401574     0.87110
O381        O  0.94472760  0.01305272  0.47296499    -0.88200
O382        O  0.00810939  0.02980906  0.44042354    -0.88310
O383        O  0.99439134  0.98072254  0.42133627    -0.75370
Mg384      Mg  0.05862414  0.03652543  0.54732186     1.57970
O385        O  0.10166902  0.07505487  0.47378667    -0.82740
H386        H  0.97025319  0.99683618  0.58965336    -0.06470
O387        O  0.97381710  0.94638041  0.48832148    -0.88010
H388        H  0.99371667  0.91262566  0.45848022    -0.06290
H389        H  0.91279184  0.04107413  0.49770551    -0.06470
C390        C  0.99652129  0.92733943  0.48089310     0.87080
C391        C  0.99126312  0.99725926  0.57333965     0.87670
C392        C  0.92768657  0.01883487  0.49759182     0.87710
H393        H  0.03360792  0.00727587  0.40488341    -0.06450
O394        O  0.07544892  0.00258452  0.47109396    -0.75470
Mg395      Mg  0.94608906  0.96739014  0.44727659     1.58000
H396        H  0.09089744  0.96178545  0.49695130    -0.06460
C397        C  0.99690730  0.88437632  0.56581866     0.92700
O398        O  0.90420162  0.92672964  0.51750623    -0.82700
C399        C  0.88526243  0.93557093  0.49306259     0.92760
O400        O  0.08573919  0.01578363  0.59317348    -0.82690
Mg401      Mg  0.05225001  0.05308383  0.45765766     1.58180
O402        O  0.97145480  0.89785775  0.55170983    -0.81020
O403        O  0.97931122  0.10246176  0.42425959    -0.82710
O404        O  0.96496641  0.03083978  0.03591053    -0.88300
C405        C  0.96040501  0.93327184  0.01399884     0.87730
Mg406      Mg  0.96218859  0.06862917  0.99852572     1.58150
O407        O  0.04024295  0.96225872  0.03473996    -0.88030
O408        O  0.00052052  0.01515068  0.07561052    -0.75360
C409        C  0.06245812  0.01794106  0.87890849     0.92780
O410        O  0.92426693  0.99495179  0.97655777    -0.75180
O411        O  0.03621671  0.03510485  0.88195660    -0.82680
Mg412      Mg  0.92770120  0.99299554  0.03400754     1.57960
C413        C  0.12102077  0.93873374  0.98168963     0.92700
O414        O  0.92701203  0.99000258  0.09182707    -0.80940
H415        H  0.07146870  0.98425155  0.06749280    -0.06290
C416        C  0.01850986  0.95546595  0.93542748     0.87640
O417        O  0.01909712  0.07245518  0.99902901    -0.75460
O418        O  0.96615946  0.95700592  0.03274515    -0.88220
O419        O  0.09658024  0.92529578  0.99620002    -0.81030
C420        C  0.02291064  0.87720825  0.05900398     0.92820
C421        C  0.94046055  0.97507445  0.11707066     0.92670
Mg422      Mg  0.07461302  0.00008486  0.96172707     1.57950
O423        O  0.07620504  0.00305224  0.90397512    -0.80950
O424        O  0.07796439  0.99810618  0.01920119    -0.75190
O425        O  0.00758942  0.90152032  0.07194194    -0.81030
O426        O  0.88523407  0.03026040  0.03270214    -0.82740
O427        O  0.99700908  0.09011899  0.92391967    -0.81060
C428        C  0.06367731  0.98117435  0.04157264     0.87110
O429        O  0.03614535  0.03544880  0.96331138    -0.88200
O430        O  0.03677554  0.96219125  0.95991120    -0.88310
O431        O  0.00117888  0.97739144  0.92015919    -0.75370
Mg432      Mg  0.00379952  0.95851796  0.07206728     1.57970
O433        O  0.04219296  0.88150000  0.03464101    -0.82740
H434        H  0.98553420  0.06266440  0.06857716    -0.06470
O435        O  0.96209840  0.03070079  0.96101721    -0.88010
H436        H  0.93074369  0.00886323  0.92827702    -0.06290
H437        H  0.06732517  0.06683886  0.98668670    -0.06470
C438        C  0.93858137  0.01187707  0.95419178     0.87080
C439        C  0.98325957  0.03726521  0.06048018     0.87670
C440        C  0.04189413  0.05875529  0.98262776     0.87710
H441        H  0.01625965  0.92997801  0.92761332    -0.06450
O442        O  0.98319942  0.91944401  0.99769089    -0.75470
Mg443      Mg  0.99885510  0.03388430  0.92385919     1.58000
H444        H  0.93503731  0.92479548  0.01048469    -0.06460
C445        C  0.88070402  0.05540999  0.01370487     0.92700
O446        O  0.96297703  0.11132891  0.96115624    -0.82700
C447        C  0.98253181  0.11474499  0.93682663     0.92760
O448        O  0.96638294  0.95729448  0.11426047    -0.82690
Mg449      Mg  0.04009363  0.92440706  0.99714201     1.58180
O450        O  0.90439941  0.06919348  0.99812619    -0.81020
O451        O  0.11745516  0.96401028  0.96282878    -0.82710
O452        O  0.56175053  0.01297456  0.52877967    -0.88300
C453        C  0.50703996  0.92887520  0.52252485     0.87730
Mg454      Mg  0.54361753  0.05562872  0.55287030     1.58150
O455        O  0.50973838  0.97489094  0.44824591    -0.88030
O456        O  0.57786427  0.99929769  0.47879427    -0.75360
C457        C  0.38693802  0.06903241  0.49859082     0.92780
O458        O  0.51204988  0.98207913  0.58174295    -0.75180
O459        O  0.40672152  0.07605615  0.52286537    -0.82680
Mg460      Mg  0.56018477  0.96751874  0.55591616     1.57960
C461        C  0.42793189  0.99225606  0.38845362     0.92700
O462        O  0.61147537  0.95124506  0.53456344    -0.80940
H463        H  0.53580962  0.99675569  0.41229945    -0.06290
C464        C  0.42875826  0.98489530  0.50321693     0.87640
O465        O  0.52569352  0.07692009  0.50202013    -0.75460
O466        O  0.53072754  0.94711596  0.51553528    -0.88220
O467        O  0.44631365  0.96886209  0.39994960    -0.81030
C468        C  0.50729971  0.88629496  0.43762535     0.92820
C469        C  0.61963596  0.93330305  0.50994346     0.92670
Mg470      Mg  0.44671377  0.03686851  0.45183283     1.57950
O471        O  0.39603998  0.05226722  0.47352346    -0.80950
O472        O  0.49544680  0.02285910  0.42632817    -0.75190
O473        O  0.53160059  0.89761793  0.45514379    -0.81030
O474        O  0.58774318  0.98926104  0.60001793    -0.82740
O475        O  0.47374288  0.10549367  0.55577474    -0.81060
C476        C  0.51448987  0.99777077  0.42816589     0.87110
O477        O  0.47528852  0.05718221  0.49269114    -0.88200
O478        O  0.44500905  0.99104045  0.47804164    -0.88310
O479        O  0.43025301  0.00318354  0.52898840    -0.75370
Mg480      Mg  0.55236228  0.94952950  0.46785685     1.57970
O481        O  0.48259848  0.90397154  0.42851438    -0.82740
H482        H  0.59437260  0.04013797  0.50348681    -0.06470
O483        O  0.49779708  0.02995799  0.55957385    -0.88010
H484        H  0.47244437  0.00883879  0.59645633    -0.06290
H485        H  0.49640249  0.08970081  0.46183725    -0.06470
C486        C  0.49338336  0.00741744  0.58012451     0.87080
C487        C  0.57889975  0.01824384  0.50405674     0.87670
C488        C  0.49863919  0.07543895  0.48478401     0.87710
H489        H  0.41381872  0.96263555  0.50377862    -0.06450
O490        O  0.48081163  0.92712489  0.50392911    -0.75470
Mg491      Mg  0.45418414  0.05350735  0.54110286     1.58000
H492        H  0.50840519  0.91447752  0.54543062    -0.06460
C493        C  0.57967324  0.01413670  0.61734532     0.92700
O494        O  0.52612305  0.10340803  0.57526747    -0.82700
C495        C  0.49925282  0.11918964  0.56949685     0.92760
O496        O  0.59833416  0.92518019  0.48743903    -0.82690
Mg497      Mg  0.46384202  0.94959658  0.45279182     1.58180
O498        O  0.56182827  0.03769575  0.60542567    -0.81020
O499        O  0.41917104  0.01629367  0.40659622    -0.82710
C500        C  0.25377833  0.12917676  0.50117599    -0.02440
O501        O  0.47329905  0.94413619  0.00921478    -0.88300
C502        C  0.48705826  0.99746866  0.92415609     0.87730
Mg503      Mg  0.44810218  0.96302709  0.05098366     1.58150
O504        O  0.55812219  0.98929919  0.97580709    -0.88030
O505        O  0.52256932  0.92401405  0.99862827    -0.75360
C506        C  0.50890504  0.11469266  0.07075552     0.92780
O507        O  0.42633171  0.99957482  0.97488527    -0.75180
O508        O  0.48475598  0.09577802  0.07766938    -0.82680
Mg509      Mg  0.44890654  0.94962678  0.96101914     1.57960
C510        C  0.61849031  0.06817710  0.99701551     0.92700
O511        O  0.46724321  0.89773091  0.94597293    -0.80940
H512        H  0.59142892  0.96114600  0.00081170    -0.06290
C513        C  0.50544241  0.07383230  0.98446576     0.87640
O514        O  0.49825353  0.97689143  0.07662311    -0.75460
O515        O  0.49211007  0.97393219  0.94362348    -0.88220
O516        O  0.60764136  0.05043181  0.97280475    -0.81030
C517        C  0.57305841  0.99146521  0.88697683     0.92820
C518        C  0.49155269  0.88556189  0.93042247     0.92670
Mg519      Mg  0.55375594  0.05219433  0.03927868     1.57950
O520        O  0.53351117  0.10448702  0.05410156    -0.80950
O521        O  0.57753146  0.00212167  0.02603704    -0.75190
O522        O  0.55487631  0.96781482  0.89734149    -0.81030
O523        O  0.40085590  0.92706465  0.97735710    -0.82740
O524        O  0.44886519  0.03057098  0.10458386    -0.81060
C525        C  0.57645673  0.98334151  0.00054442     0.87110
O526        O  0.51156556  0.02610667  0.05752506    -0.88200
O527        O  0.52939407  0.05555896  0.99138105    -0.88310
O528        O  0.47976311  0.07459724  0.00239076    -0.75370
Mg529      Mg  0.53795944  0.94792956  0.94904337     1.57970
O530        O  0.58138319  0.01578683  0.90541276    -0.82740
H531        H  0.49531884  0.90957914  0.03817263    -0.06470
O532        O  0.44494057  0.00967012  0.02600386    -0.88010
H533        H  0.41208951  0.03909306  0.00201944    -0.06290
H534        H  0.53935780  0.00231292  0.09228109    -0.06470
C535        C  0.42685757  0.01678982  0.00141433     0.87080
C536        C  0.49660261  0.92504655  0.01605460     0.87670
C537        C  0.51721329  0.00214110  0.07630002     0.87710
H538        H  0.50599885  0.08895975  0.96206042    -0.06450
O539        O  0.50613974  0.02259256  0.92377185    -0.75470
Mg540      Mg  0.46505778  0.05065642  0.05248595     1.58000
H541        H  0.46526719  0.99708129  0.90768575    -0.06460
C542        C  0.38421347  0.93276416  0.00325547     0.92700
O543        O  0.42299909  0.98223559  0.09695154    -0.82700
C544        C  0.43113880  0.00671225  0.11531610     0.92760
O545        O  0.51733247  0.90233427  0.92363544    -0.82690
Mg546      Mg  0.55583521  0.03573915  0.95040055     1.58180
O547        O  0.39696791  0.94697887  0.02901458    -0.81020
O548        O  0.60019061  0.07678910  0.02090408    -0.82710
C549        C  0.49889815  0.25049242  0.12246509    -0.02440
O550        O  0.53582082  0.46260066  0.03310589    -0.88300
C551        C  0.43813702  0.48329010  0.03923820     0.87730
Mg552      Mg  0.57408133  0.49861813  0.03841955     1.58150
O553        O  0.46501067  0.46867487  0.95836015    -0.88030
O554        O  0.51956739  0.42551924  0.99624694    -0.75360
C555        C  0.52133082  0.62444664  0.94344362     0.92780
O556        O  0.50039278  0.51770591  0.07667567    -0.75180
O557        O  0.54104354  0.61977545  0.96853147    -0.82680
Mg558      Mg  0.49898880  0.46114453  0.07101798     1.57960
C559        C  0.44018195  0.52694998  0.87805472     0.92700
O560        O  0.49783120  0.40434854  0.06894443    -0.80940
H561        H  0.48605122  0.43882068  0.92533341    -0.06290
C562        C  0.45955244  0.56607802  0.98354136     0.87640
O563        O  0.57773256  0.50307187  0.98129210    -0.75460
O564        O  0.46172069  0.46500019  0.03265130    -0.88220
O565        O  0.42749316  0.51158915  0.90275742    -0.81030
C566        C  0.38037233  0.44235163  0.97478973     0.92820
C567        C  0.48358986  0.37976442  0.05465251     0.92670
Mg568      Mg  0.50257959  0.54356224  0.92667406     1.57950
O569        O  0.50619964  0.60031528  0.92911481    -0.80950
O570        O  0.49978728  0.48696487  0.92092296    -0.75190
O571        O  0.40510203  0.42821075  0.98972349    -0.81030
O572        O  0.53677438  0.45908537  0.11427354    -0.82740
O573        O  0.59599264  0.57397675  0.00852585    -0.81060
C574        C  0.48325934  0.46378214  0.93440116     0.87110
O575        O  0.53939813  0.53890260  0.96554864    -0.88200
O576        O  0.46556515  0.54274016  0.96472166    -0.88310
O577        O  0.48226522  0.58005753  0.00119375    -0.75370
Mg578      Mg  0.46257585  0.42877046  0.99353516     1.57970
O579        O  0.38405373  0.46881044  0.95762301    -0.82740
H580        H  0.56770791  0.43217702  0.01128320    -0.06470
O581        O  0.53589391  0.53593739  0.03992858    -0.88010
H582        H  0.51385303  0.56591238  0.07216396    -0.06290
H583        H  0.57091614  0.51919804  0.93338151    -0.06470
C584        C  0.51707818  0.54089150  0.06342119     0.87080
C585        C  0.54212010  0.43965651  0.01392389     0.87670
C586        C  0.56312490  0.52081118  0.95900945     0.87710
H587        H  0.43409756  0.57413510  0.98581194    -0.06450
O588        O  0.42388269  0.50154153  0.01713903    -0.75470
Mg589      Mg  0.53925351  0.57537399  0.00462837     1.58000
H590        H  0.43030544  0.48478154  0.06486114    -0.06460
C591        C  0.56213743  0.47749122  0.11907647     0.92700
O592        O  0.61736300  0.53501756  0.04211102    -0.82700
C593        C  0.62093286  0.56002543  0.02307408     0.92760
O594        O  0.46345772  0.38400982  0.02970119    -0.82690
Mg595      Mg  0.42728670  0.50626743  0.96007699     1.58180
O596        O  0.57495228  0.49378778  0.09526944    -0.81020
O597        O  0.46481522  0.54648527  0.88235756    -0.82710
O598        O  0.96528103  0.53964645  0.53218418    -0.88300
C599        C  0.06326818  0.51711921  0.54136909     0.87730
Mg600      Mg  0.92643708  0.50376665  0.53372082     1.58150
O601        O  0.03468135  0.53512844  0.45988064    -0.88030
O602        O  0.98173267  0.57824922  0.49753802    -0.75360
C603        C  0.97996831  0.38092567  0.43923608     0.92780
O604        O  0.00005193  0.48170594  0.57505913    -0.75180
O605        O  0.96095137  0.38432417  0.46392257    -0.82680
Mg606      Mg  0.00307409  0.53834242  0.57139235     1.57960
C607        C  0.05952706  0.47828662  0.37961501     0.92700
O608        O  0.00664337  0.59547320  0.57177630    -0.80940
H609        H  0.01341569  0.56635002  0.42669323    -0.06290
C610        C  0.04024753  0.43774723  0.48431378     0.87640
O611        O  0.92327752  0.50159072  0.47638241    -0.75460
O612        O  0.03958744  0.53564465  0.53432480    -0.88220
O613        O  0.07234083  0.49365234  0.40469203    -0.81030
C614        C  0.11923585  0.55991495  0.47904084     0.92820
C615        C  0.02159755  0.62028228  0.55895473     0.92670
Mg616      Mg  0.99724903  0.46164143  0.42496458     1.57950
O617        O  0.99469993  0.40543515  0.42594842    -0.80950
O618        O  0.99970275  0.51839413  0.42027451    -0.75190
O619        O  0.09530306  0.57361299  0.49400226    -0.81030
O620        O  0.96586097  0.53866426  0.61303385    -0.82740
O621        O  0.90280567  0.42682741  0.50019066    -0.81060
C622        C  0.01625895  0.54103751  0.43520723     0.87110
O623        O  0.96045776  0.46508048  0.46185695    -0.88200
O624        O  0.03429305  0.46108246  0.46482337    -0.88310
O625        O  0.01750959  0.42367369  0.50074507    -0.75370
Mg626      Mg  0.03855975  0.57367027  0.49640381     1.57970
O627        O  0.11495453  0.53414610  0.46127560    -0.82740
H628        H  0.93373251  0.57208965  0.51068414    -0.06470
O629        O  0.96343913  0.46561014  0.53659628    -0.88010
H630        H  0.98505192  0.43409932  0.56922986    -0.06290
H631        H  0.92956188  0.48695151  0.42850381    -0.06470
C632        C  0.98239789  0.45946234  0.56080994     0.87080
C633        C  0.95917356  0.56377739  0.51382701     0.87670
C634        C  0.93726543  0.48411947  0.45451335     0.87710
H635        H  0.06573055  0.42988484  0.48839273    -0.06450
O636        O  0.07713822  0.49978760  0.51932198    -0.75470
Mg637      Mg  0.96052143  0.42741124  0.50028177     1.58000
H638        H  0.07156155  0.51465193  0.56724484    -0.06460
C639        C  0.93956388  0.52144820  0.61614095     0.92700
O640        O  0.88332664  0.46699256  0.53247602    -0.82700
C641        C  0.87891677  0.44127741  0.51458209     0.92760
O642        O  0.04061618  0.61675268  0.53420100    -0.82690
Mg643      Mg  0.07242890  0.49721261  0.46205988     1.58180
O644        O  0.92535572  0.50681170  0.59132655    -0.81020
O645        O  0.03451436  0.45937167  0.38287753    -0.82710
O646        O  0.95899616  0.53327414  0.03150304    -0.88300
C647        C  0.97923192  0.53314471  0.93329787     0.87730
Mg648      Mg  0.99595997  0.53712461  0.06957625     1.58150
O649        O  0.96004928  0.45516036  0.96606403    -0.88030
O650        O  0.92037276  0.49687890  0.01808305    -0.75360
C651        C  0.11658783  0.43605057  0.02243171     0.92780
O652        O  0.01721887  0.57193353  0.99346619    -0.75180
O653        O  0.11310348  0.46170596  0.04032749    -0.82680
Mg654      Mg  0.96034141  0.56900231  0.99139975     1.57960
C655        C  0.01266864  0.37348553  0.94466991     0.92700
O656        O  0.90354844  0.57013149  0.98893628    -0.80940
H657        H  0.92859936  0.42492982  0.98933285    -0.06290
C658        C  0.05743545  0.47607186  0.95795724     0.87640
O659        O  0.99722856  0.48066877  0.07631498    -0.75460
O660        O  0.96146329  0.52863498  0.95775241    -0.88220
O661        O  0.99575750  0.39638089  0.93029980    -0.81030
C662        C  0.93362994  0.47146268  0.87968375     0.92820
C663        C  0.87837343  0.55561413  0.97556843     0.92670
Mg664      Mg  0.03402924  0.42242788  0.00504933     1.57950
O665        O  0.09159688  0.42239382  0.00756566    -0.80950
O666        O  0.97700710  0.41864472  0.00362739    -0.75190
O667        O  0.92163454  0.48710465  0.90419376    -0.81030
O668        O  0.96175994  0.61384996  0.02580877    -0.82740
O669        O  0.07228799  0.50483261  0.09414204    -0.81060
C670        C  0.95411430  0.43246563  0.98600338     0.87110
O671        O  0.03237565  0.46186963  0.03993129    -0.88200
O672        O  0.03370076  0.45806028  0.96520369    -0.88310
O673        O  0.07270650  0.49372874  0.97972137    -0.75370
Mg674      Mg  0.92283546  0.49179956  0.96121197     1.57970
O675        O  0.95727531  0.45091193  0.88417005    -0.82740
H676        H  0.92785367  0.51473819  0.06501382    -0.06470
O677        O  0.03296734  0.53560493  0.03169164    -0.88010
H678        H  0.06521091  0.56540458  0.00900517    -0.06290
H679        H  0.01040997  0.43239641  0.07312232    -0.06470
C680        C  0.03953874  0.55815311  0.01181475     0.87080
C681        C  0.93521340  0.51553262  0.03918935     0.87670
C682        C  0.01372579  0.45728215  0.06367232     0.87710
H683        H  0.06472950  0.47763003  0.93214241    -0.06450
O684        O  0.99496896  0.50963875  0.91992186    -0.75470
Mg685      Mg  0.07059006  0.49896239  0.03696409     1.58000
H686        H  0.98235750  0.55801971  0.92374728    -0.06460
C687        C  0.97946670  0.61809347  0.05235569     0.92700
O688        O  0.03338203  0.53908784  0.11236545    -0.82700
C689        C  0.05896204  0.52118018  0.11748304     0.92760
O690        O  0.88094035  0.52906943  0.95890718    -0.82690
Mg691      Mg  0.99566787  0.45323347  0.92724031     1.58180
O692        O  0.99379842  0.59398822  0.06768468    -0.81020
O693        O  0.03311438  0.37903454  0.96895875    -0.82710
C694        C  0.12333272  0.50394020  0.24981479    -0.02440
O695        O  0.44389695  0.49250019  0.52686015    -0.88300
C696        C  0.49660543  0.57727902  0.51673259     0.87730
Mg697      Mg  0.46334181  0.45001014  0.55190509     1.58150
O698        O  0.48882355  0.53009868  0.44373851    -0.88030
O699        O  0.42320998  0.50566025  0.47708436    -0.75360
C700        C  0.61593871  0.43375619  0.49475485     0.92780
O701        O  0.49912596  0.52335900  0.57665553    -0.75180
O702        O  0.59775545  0.42429153  0.51852656    -0.82680
Mg703      Mg  0.44869038  0.53829170  0.55277804     1.57960
C704        C  0.56945347  0.51196107  0.38621195     0.92700
O705        O  0.39661131  0.55455325  0.53287116    -0.81580
H706        H  0.46099502  0.50685523  0.40884306    -0.06290
C707        C  0.57420028  0.51855920  0.49956724     0.87640
O708        O  0.47691438  0.42763375  0.50120872    -0.75460
O709        O  0.47304786  0.55834543  0.51047884    -0.88220
O710        O  0.55095406  0.53539312  0.39609751    -0.81030
C711        C  0.49080237  0.61931203  0.43172112     0.92820
C712        C  0.38465777  0.57192228  0.50865797     0.92670
Mg713      Mg  0.55266213  0.46738913  0.44956567     1.57950
O714        O  0.60490417  0.45226136  0.47101835    -0.80950
O715        O  0.50236841  0.48148504  0.42396796    -0.75190
O716        O  0.46649381  0.60751474  0.44785461    -0.81030
O717        O  0.42548506  0.51821943  0.59961030    -0.82740
O718        O  0.53141918  0.39649240  0.55200273    -0.81060
C719        C  0.48320127  0.50651004  0.42473384     0.87110
O720        O  0.52666752  0.44665278  0.49032935    -0.88200
O721        O  0.55540290  0.51318408  0.47509620    -0.88310
O722        O  0.57574372  0.49908228  0.52476655    -0.75370
Mg723      Mg  0.44699435  0.55550908  0.46324310     1.57970
O724        O  0.51507863  0.60122661  0.42330431    -0.82740
H725        H  0.40916364  0.46504542  0.50332974    -0.06470
O726        O  0.51036046  0.47409077  0.55706761    -0.88010
H727        H  0.53957571  0.49648138  0.59136823    -0.06290
H728        H  0.50280667  0.41426724  0.46054542    -0.06470
C729        C  0.51709398  0.49752610  0.57591402     0.87080
C730        C  0.42456850  0.48699179  0.50284907     0.87670
C731        C  0.50252611  0.42870286  0.48322946     0.87710
H732        H  0.58923936  0.54076673  0.49983473    -0.06450
O733        O  0.52190297  0.57866912  0.49837043    -0.75470
Mg734      Mg  0.55186018  0.44867558  0.53771825     1.58000
H735        H  0.49608618  0.59236639  0.53896343    -0.06460
C736        C  0.43248814  0.49230028  0.61657822     0.92700
O737        O  0.48246702  0.40360690  0.57588311    -0.82700
C738        C  0.50695876  0.38554921  0.56851748     0.92760
O739        O  0.40154988  0.57991029  0.48339430    -0.82690
Mg740      Mg  0.53542369  0.55504141  0.44832916     1.58180
O741        O  0.44816162  0.46803189  0.60434201    -0.81020
O742        O  0.57809557  0.48799275  0.40514937    -0.82710
C743        C  0.99429517  0.74989057  0.62401516    -0.02440
O744        O  0.20877585  0.78534635  0.71630019    -0.88300
C745        C  0.20628169  0.76410900  0.81561522     0.87730
Mg746      Mg  0.20455288  0.74822603  0.67872564     1.58150
O747        O  0.28578708  0.78197377  0.78658156    -0.88030
O748        O  0.24522160  0.82311025  0.73202564    -0.75360
C749        C  0.30508169  0.62823221  0.73464388     0.92780
O750        O  0.16886401  0.72814710  0.75320850    -0.75180
O751        O  0.28060632  0.63305565  0.71434328    -0.82680
Mg752      Mg  0.17261352  0.78493413  0.75441684     1.57960
C753        C  0.36649349  0.72860478  0.81248326     0.92700
O754        O  0.17205940  0.84230222  0.75645519    -0.80940
H755        H  0.31671755  0.81348383  0.76430193    -0.06290
C756        C  0.26294944  0.68533212  0.79482788     0.87640
O757        O  0.26160637  0.74724534  0.67512537    -0.75460
O758        O  0.21185371  0.78202121  0.79113804    -0.88220
O759        O  0.34217923  0.74348516  0.82536979    -0.81030
C760        C  0.26997341  0.80721106  0.87189177     0.92820
C761        C  0.18664962  0.86594741  0.77214639     0.92670
Mg762      Mg  0.31867813  0.70891578  0.75079639     1.57950
O763        O  0.31865040  0.65160771  0.75142777    -0.80950
O764        O  0.32289323  0.76556041  0.75102276    -0.75190
O765        O  0.25425720  0.81996292  0.84680256    -0.81030
O766        O  0.12960050  0.78537866  0.71660623    -0.82740
O767        O  0.23946210  0.67373883  0.65718267    -0.81060
C768        C  0.30894449  0.78808093  0.76767467     0.87110
O769        O  0.27967372  0.71203274  0.71372253    -0.88200
O770        O  0.28140202  0.70893000  0.78827701    -0.88310
O771        O  0.24574161  0.67061330  0.77224497    -0.75370
Mg772      Mg  0.24957166  0.81950028  0.78942605     1.57970
O773        O  0.28933985  0.78272679  0.86847528    -0.82740
H774        H  0.22926940  0.81672054  0.68385517    -0.06470
O775        O  0.20568202  0.71142131  0.71746250    -0.88010
H776        H  0.17486106  0.68012291  0.74016098    -0.06290
H777        H  0.31010932  0.73437440  0.68184063    -0.06470
C778        C  0.18270147  0.70548133  0.73662453     0.87080
C779        C  0.22733706  0.80884427  0.70965186     0.87670
C780        C  0.28485547  0.73088753  0.68980201     0.87710
H781        H  0.26060729  0.67768139  0.82064580    -0.06450
O782        O  0.22919262  0.74759320  0.83052369    -0.75470
Mg783      Mg  0.24261276  0.67416897  0.71479359     1.58000
H784        H  0.18101604  0.76159956  0.82386749    -0.06460
C785        C  0.12348668  0.76509911  0.69292586     0.92700
O786        O  0.20393680  0.71106955  0.63596728    -0.82700
C787        C  0.22368166  0.68682132  0.63230324     0.92760
O788        O  0.21251554  0.86113010  0.79054577    -0.82690
Mg789      Mg  0.28595050  0.74547548  0.82592930     1.58180
O790        O  0.14643697  0.74838978  0.67935813    -0.81020
O791        O  0.36241314  0.70908205  0.78786592    -0.82710
C792        C  0.49802533  0.75237010  0.87472294    -0.02440
C793        C  0.40010958  0.73482348  0.82683542    -0.05420
C794        C  0.42831951  0.73331249  0.80685936    -0.32850
C795        C  0.46021986  0.74075774  0.82017056     0.36400
C796        C  0.46445353  0.74831391  0.85467345    -0.05780
C797        C  0.43529859  0.75166642  0.87357417    -0.32750
C798        C  0.40394481  0.74466092  0.86032765     0.36300
H799        H  0.42554005  0.72716145  0.78056742     0.16670
O800        O  0.48636058  0.74098732  0.79895435    -0.60250
H801        H  0.43712268  0.75768970  0.89996174     0.16690
O802        O  0.37724773  0.74671698  0.88089812    -0.60340
H803        H  0.37499489  0.72432536  0.89090990     0.43680
H804        H  0.48649643  0.76348802  0.78891646     0.43640
C805        C  0.02385101  0.75377752  0.65049934    -0.05420
C806        C  0.03783579  0.78537026  0.65786219    -0.32850
C807        C  0.06943566  0.78909702  0.67266270     0.36400
C808        C  0.08867259  0.76123601  0.68063157    -0.05780
C809        C  0.07407323  0.72980604  0.67747634    -0.32750
C810        C  0.04149881  0.72602621  0.66411198     0.36300
H811        H  0.02562619  0.80810748  0.65094256     0.16670
O812        O  0.08194225  0.82036398  0.67766453    -0.60250
H813        H  0.08799930  0.70805419  0.68536087     0.16690
O814        O  0.02829131  0.69476469  0.66242169    -0.60340
H815        H  0.01623307  0.69178048  0.68354079     0.43680
H816        H  0.09225376  0.82663018  0.65625393     0.43640
C817        C  0.10296966  0.50944934  0.21640235    -0.05420
C818        C  0.12246401  0.51388274  0.18754166    -0.32850
C819        C  0.10840947  0.51804942  0.15577784     0.36400
C820        C  0.07385451  0.51900435  0.15147123    -0.05780
C821        C  0.05378919  0.51666525  0.17969343    -0.32750
C822        C  0.06791124  0.51159015  0.21203373     0.36300
H823        H  0.14937868  0.51298424  0.18969474     0.16670
O824        O  0.12887409  0.52105726  0.12898190    -0.60250
H825        H  0.02697305  0.51806240  0.17658952     0.16690
O826        O  0.04733576  0.51092606  0.23880782    -0.60340
H827        H  0.03296515  0.49115397  0.23557243     0.43680
H828        H  0.13281447  0.54516292  0.12640848     0.43640
C829        C  0.01506288  0.65392980  0.57276677    -0.05420
C830        C  0.03825551  0.68002151  0.57141888    -0.32850
C831        C  0.03218340  0.71105938  0.58668826     0.36400
C832        C  0.00116336  0.71772934  0.60207581    -0.05780
C833        C  0.97853492  0.69041078  0.60254846    -0.32750
C834        C  0.98487386  0.65992945  0.58821646     0.36300
H835        H  0.06206494  0.67581373  0.56015948     0.16670
O836        O  0.05792508  0.73339120  0.58889514    -0.60250
H837        H  0.95564921  0.69059197  0.61581714     0.16690
O838        O  0.96106445  0.63565089  0.59043965    -0.60340
H839        H  0.94680267  0.63822690  0.56993171     0.43680
H840        H  0.07559876  0.72262802  0.60292163     0.43640
C841        C  0.10440185  0.49897501  0.28344100    -0.05420
C842        C  0.08172036  0.47235965  0.28670028    -0.32850
C843        C  0.06635494  0.46513250  0.31730238     0.36400
C844        C  0.07421263  0.48390767  0.34615956    -0.05780
C845        C  0.09727551  0.50946550  0.34347139    -0.32750
C846        C  0.11311727  0.51635521  0.31378211     0.36300
H847        H  0.07614842  0.45673939  0.26533438     0.16670
O848        O  0.04468157  0.43897714  0.31885239    -0.60250
H849        H  0.10430516  0.52416293  0.36515279     0.16690
O850        O  0.13810295  0.53952147  0.31601093    -0.60340
H851        H  0.15627018  0.52936544  0.32985965     0.43680
H852        H  0.02288777  0.44796641  0.31097376     0.43640
C853        C  0.51442302  0.65855110  0.93065907    -0.05420
C854        C  0.53702957  0.68496222  0.93498172    -0.32850
C855        C  0.53094566  0.71623059  0.91969149     0.36400
C856        C  0.50174944  0.72173210  0.89941631    -0.05780
C857        C  0.47870804  0.69493523  0.89759258    -0.32750
C858        C  0.48432930  0.66473061  0.91328575     0.36300
H859        H  0.56010308  0.68105552  0.94907641     0.16670
O860        O  0.55452017  0.74064445  0.92328091    -0.60250
H861        H  0.45639219  0.69523801  0.88214737     0.16690
O862        O  0.46016239  0.64078970  0.91018860    -0.60340
H863        H  0.44645258  0.64316605  0.93029556     0.43680
H864        H  0.57366862  0.73327210  0.91010463     0.43640
C865        C  0.49131630  0.34565830  0.06754245    -0.05420
C866        C  0.47578717  0.31750370  0.05375821    -0.32850
C867        C  0.48143628  0.28553502  0.06764362     0.36400
C868        C  0.50134536  0.28149194  0.09762850    -0.05780
C869        C  0.52205566  0.30893974  0.10560369    -0.32750
C870        C  0.51640200  0.34047040  0.09226192     0.36300
H871        H  0.45911337  0.32019846  0.03215020     0.16670
O872        O  0.46874220  0.25826994  0.05105163    -0.60250
H873        H  0.54320638  0.30718860  0.12241692     0.16690
O874        O  0.53573740  0.36609048  0.10414048    -0.60340
H875        H  0.55539821  0.36658594  0.08969090     0.43680
H876        H  0.44674150  0.26439587  0.04099335     0.43640
C877        C  0.48944571  0.85139034  0.91842523    -0.05420
C878        C  0.48481099  0.84653051  0.88425057    -0.32850
C879        C  0.48619371  0.81494681  0.87080864     0.36400
C880        C  0.49383593  0.78683127  0.89158696    -0.05780
C881        C  0.49642136  0.79186437  0.92649861    -0.32750
C882        C  0.49439687  0.82393565  0.93986480     0.36300
H883        H  0.48088308  0.86755896  0.86761113     0.16670
O884        O  0.48322813  0.81210500  0.83661844    -0.60250
H885        H  0.50051807  0.77133118  0.94355227     0.16690
O886        O  0.49893030  0.82837354  0.97368669    -0.60340
H887        H  0.47626068  0.82767412  0.98282596     0.43680
H888        H  0.45928431  0.81558287  0.83105109     0.43640
C889        C  0.50713845  0.14940507  0.08252178    -0.05420
C890        C  0.52100811  0.17591827  0.06467330    -0.32850
C891        C  0.51704120  0.20902938  0.07525222     0.36400
C892        C  0.49812629  0.21626942  0.10404870    -0.05780
C893        C  0.48488771  0.18874132  0.12138415    -0.32750
C894        C  0.48944165  0.15634284  0.11136405     0.36300
H895        H  0.53538106  0.17099083  0.04271836     0.16670
O896        O  0.53494265  0.23342594  0.05980349    -0.60250
H897        H  0.47181698  0.19139123  0.14426588     0.16690
O898        O  0.47709324  0.13136908  0.13095480    -0.60340
H899        H  0.49557032  0.12542212  0.14682820     0.43680
H900        H  0.52724925  0.23349732  0.03598874     0.43640
C901        C  0.28748439  0.10917669  0.50227102    -0.05420
C902        C  0.31639307  0.12637456  0.51439340    -0.32850
C903        C  0.34806356  0.11349657  0.51292792     0.36400
C904        C  0.35281438  0.08202059  0.49976592    -0.05780
C905        C  0.32490478  0.06314255  0.48979726    -0.32750
C906        C  0.29237853  0.07591206  0.49209853     0.36300
H907        H  0.31512139  0.15184036  0.52246369     0.16670
O908        O  0.37451892  0.13289603  0.52305785    -0.60250
H909        H  0.32825719  0.03804052  0.48116668     0.16690
O910        O  0.26630852  0.05509866  0.48519369    -0.60340
H911        H  0.26088340  0.04488128  0.50702319     0.43680
H912        H  0.38096366  0.14536361  0.50275883     0.43640
C913        C  0.99437399  0.84971605  0.57718541    -0.05420
C914        C  0.97314951  0.84263888  0.60299137    -0.32850
C915        C  0.97232349  0.81127236  0.61756741     0.36400
C916        C  0.99091893  0.78396991  0.60420160    -0.05780
C917        C  0.01015137  0.79140110  0.57596998    -0.32750
C918        C  0.01319452  0.82403473  0.56366372     0.36300
H919        H  0.95875276  0.86236105  0.61378644     0.16670
O920        O  0.95461418  0.80864285  0.64636627    -0.60250
H921        H  0.02355868  0.77251539  0.56336163     0.16690
O922        O  0.03442666  0.83049147  0.53814307    -0.60340
H923        H  0.05618389  0.83538380  0.54936778     0.43680
H924        H  0.96944888  0.81719217  0.66458165     0.43640
C925        C  0.15488517  0.07946176  0.50035928    -0.05420
C926        C  0.17533865  0.07696926  0.47253220    -0.32850
C927        C  0.20773975  0.09071012  0.47297317     0.36400
C928        C  0.22050234  0.10784832  0.50173535    -0.05780
C929        C  0.19827713  0.11018175  0.52898363    -0.32750
C930        C  0.16710745  0.09541151  0.52889819     0.36300
H931        H  0.16595459  0.06485501  0.45006185     0.16670
O932        O  0.22607483  0.08867972  0.44452660    -0.60250
H933        H  0.20288674  0.12521177  0.55069790     0.16690
O934        O  0.14732691  0.09975432  0.55601021    -0.60340
H935        H  0.15428016  0.08227218  0.57227406     0.43680
H936        H  0.21318768  0.10067994  0.42674818     0.43640
C937        C  0.39153506  0.00486499  0.21531311    -0.05420
C938        C  0.42624281  0.00807254  0.21053128    -0.32850
C939        C  0.43955843  0.00935675  0.17824044     0.36400
C940        C  0.41848183  0.00761820  0.14966216    -0.05780
C941        C  0.38432348  0.00633381  0.15373823    -0.32750
C942        C  0.37089753  0.00648830  0.18554824     0.36300
H943        H  0.44359110  0.01218730  0.23077621     0.16670
O944        O  0.47328198  0.01244500  0.17494322    -0.60250
H945        H  0.36766322  0.00620402  0.13191922     0.16690
O946        O  0.33699376  0.00876412  0.18709591    -0.60340
H947        H  0.33184774  0.03258262  0.18382619     0.43680
H948        H  0.48177288  0.98944230  0.17429761     0.43640
C949        C  0.41583717  0.99178507  0.35322962    -0.05420
C950        C  0.38197013  0.99536537  0.34659141    -0.32850
C951        C  0.36925028  0.99660591  0.31380487     0.36400
C952        C  0.39056226  0.99738293  0.28566618    -0.05780
C953        C  0.42483319  0.99181851  0.29300653    -0.32750
C954        C  0.43733959  0.98912727  0.32624353     0.36300
H955        H  0.36491314  0.99630213  0.36712110     0.16670
O956        O  0.33532934  0.99638081  0.30968040    -0.60250
H957        H  0.44229759  0.98696730  0.27404130     0.16690
O958        O  0.47070788  0.98391248  0.33201946    -0.60340
H959        H  0.48067488  0.00632644  0.33370864     0.43680
H960        H  0.32858743  0.97291226  0.31241758     0.43640
C961        C  0.21571743  0.39785956  0.00354118    -0.05420
C962        C  0.18612166  0.38091792  0.99350604    -0.32850
C963        C  0.15450203  0.39246213  0.00019874     0.36400
C964        C  0.15052349  0.42207457  0.01778490    -0.05780
C965        C  0.17942144  0.43848358  0.02988234    -0.32750
C966        C  0.21159898  0.42595986  0.02410654     0.36300
H967        H  0.18690196  0.35767975  0.98034420     0.16670
O968        O  0.12762001  0.37360693  0.99020230    -0.60250
H969        H  0.17717069  0.46086679  0.04440351     0.16690
O970        O  0.23858438  0.44124822  0.03898947    -0.60340
H971        H  0.23683004  0.43678309  0.06332408     0.43680
H972        H  0.12409711  0.37853975  0.96600137     0.43640
C973        C  0.28239855  0.39964291  0.99092896    -0.05420
C974        C  0.31195024  0.38051962  0.99232734    -0.32850
C975        C  0.34321487  0.39391007  0.98684650     0.36400
C976        C  0.34657162  0.42746369  0.97824046    -0.05780
C977        C  0.31741123  0.44664635  0.97441466    -0.32750
C978        C  0.28552764  0.43325217  0.98081929     0.36300
H979        H  0.31090249  0.35443823  0.99862152     0.16670
O980        O  0.37044204  0.37360821  0.99017812    -0.60250
H981        H  0.31931975  0.47238419  0.96695864     0.16690
O982        O  0.25795055  0.45260695  0.97498752    -0.60340
H983        H  0.26169159  0.47321596  0.98792746     0.43680
H984        H  0.37340470  0.36412221  0.96762251     0.43640
C985        C  0.17216321  0.40632074  0.24288161    -0.05420
C986        C  0.18100793  0.42790491  0.26905769    -0.32850
C987        C  0.16774241  0.46013470  0.27040159     0.36400
C988        C  0.14401268  0.47117277  0.24579512    -0.05780
C989        C  0.13518726  0.44806935  0.22008495    -0.32750
C990        C  0.14982463  0.41702459  0.21788263     0.36300
H991        H  0.19788960  0.41952887  0.28895401     0.16670
O992        O  0.17608188  0.47949935  0.29740064    -0.60250
H993        H  0.11530763  0.45251758  0.20193232     0.16690
O994        O  0.13942432  0.39596961  0.19286170    -0.60340
H995        H  0.15356876  0.40136703  0.17361513     0.43680
H996        H  0.20035187  0.48356775  0.29615497     0.43640
C997        C  0.24150109  0.17314467  0.40037582    -0.05420
C998        C  0.27307678  0.16474837  0.41270024    -0.32850
C999        C  0.27886442  0.15483790  0.44560953     0.36400
C1000       C  0.25211496  0.15131683  0.46835109    -0.05780
C1001       C  0.22095105  0.16435231  0.45681125    -0.32750
C1002       C  0.21538727  0.17446649  0.42315246     0.36300
H1003       H  0.29429525  0.16598644  0.39655768     0.16670
O1004       O  0.31146544  0.14944596  0.45423922    -0.60250
H1005       H  0.19998283  0.16420510  0.47325142     0.16690
O1006       O  0.18414681  0.18423399  0.41268920    -0.60340
H1007       H  0.17246940  0.16354854  0.40606105     0.43680
H1008       H  0.32057403  0.17153866  0.46024226     0.43640
C1009       C  0.46482239  0.25286457  0.14153206    -0.05420
C1010       C  0.43508197  0.25805508  0.12241130    -0.32850
C1011       C  0.40356179  0.25647849  0.13567968     0.36400
C1012       C  0.39964036  0.24813899  0.16923727    -0.05780
C1013       C  0.42808138  0.24167386  0.18926305    -0.32750
C1014       C  0.46029816  0.24351792  0.17591609     0.36300
H1015       H  0.43475642  0.26211498  0.09623737     0.16670
O1016       O  0.37627892  0.26115377  0.11472451    -0.60250
H1017       H  0.42537754  0.23473138  0.21529516     0.16690
O1018       O  0.48651710  0.23344055  0.19617606    -0.60340
H1019       H  0.48388016  0.20920035  0.19911257     0.43680
H1020       H  0.37421806  0.28548064  0.11196110     0.43640
C1021       C  0.33063301  0.10249636  0.25748644    -0.05420
C1022       C  0.36455526  0.09712988  0.25431987    -0.32850
C1023       C  0.37754300  0.06511719  0.25311799     0.36400
C1024       C  0.35639425  0.03661945  0.25289153    -0.05780
C1025       C  0.32216029  0.04267797  0.25817353    -0.32750
C1026       C  0.30946285  0.07503051  0.26049791     0.36300
H1027       H  0.38144006  0.11805591  0.25350794     0.16670
O1028       O  0.41152287  0.06191361  0.25389557    -0.60250
H1029       H  0.30484327  0.02326664  0.26311664     0.16690
O1030       O  0.27608372  0.07947812  0.26499986    -0.60340
H1031       H  0.27335775  0.07862801  0.28959398     0.43680
H1032       H  0.41925674  0.07276314  0.23313775     0.43640
C1033       C  0.25522683  0.36073171  0.03202308    -0.05420
C1034       C  0.27468126  0.37614616  0.05786072    -0.32850
C1035       C  0.27618484  0.36405872  0.09063484     0.36400
C1036       C  0.25797505  0.33601537  0.09915971    -0.05780
C1037       C  0.23824352  0.32031020  0.07455858    -0.32750
C1038       C  0.23650663  0.33233933  0.04137017     0.36300
H1039       H  0.28788503  0.39901515  0.05340015     0.16670
O1040       O  0.29431779  0.38092649  0.11463513    -0.60250
H1041       H  0.22329265  0.29907839  0.08133346     0.16690
O1042       O  0.21473282  0.31739265  0.01915209    -0.60340
H1043       H  0.22214977  0.29406609  0.01751957     0.43680
H1044       H  0.27878235  0.39755301  0.12350569     0.43640
C1045       C  0.98550980  0.34796570  0.42483613    -0.05420
C1046       C  0.99013659  0.31976103  0.44528959    -0.32850
C1047       C  0.99828677  0.28885305  0.43141384     0.36400
C1048       C  0.00051536  0.28572869  0.39616709    -0.05780
C1049       C  0.99661053  0.31490525  0.37648604    -0.32750
C1050       C  0.98903607  0.34518180  0.39023085     0.36300
H1051       H  0.98843295  0.32189784  0.47221171     0.16670
O1052       O  0.00408411  0.26255876  0.45257050    -0.60250
H1053       H  0.99789264  0.31380954  0.34945292     0.16690
O1054       O  0.98452478  0.37195371  0.36926621    -0.60340
H1055       H  0.96040781  0.37210867  0.36333652     0.43680
H1056       H  0.02529264  0.26762466  0.46474404     0.43640
C1057       C  0.00727389  0.15329673  0.41977898    -0.05420
C1058       C  0.03198447  0.16303714  0.39839554    -0.32850
C1059       C  0.03197760  0.19452062  0.38410689     0.36400
C1060       C  0.00811768  0.21908092  0.39367299    -0.05780
C1061       C  0.98310124  0.20836703  0.41548708    -0.32750
C1062       C  0.98255610  0.17599909  0.42839866     0.36300
H1063       H  0.05003576  0.14505738  0.39031661     0.16670
O1064       O  0.05260444  0.19874981  0.35757255    -0.60250
H1065       H  0.96300387  0.22485371  0.42158562     0.16690
O1066       O  0.95727822  0.16656272  0.44876496    -0.60340
H1067       H  0.96585389  0.17065472  0.47189039     0.43680
H1068       H  0.07564560  0.19646087  0.36686489     0.43640
C1069       C  0.10073962  0.26749766  0.32993560    -0.05420
C1070       C  0.09777800  0.26625225  0.36444409    -0.32850
C1071       C  0.06676624  0.26383770  0.37856441     0.36400
C1072       C  0.03733011  0.26114678  0.35793600    -0.05780
C1073       C  0.04027863  0.26570531  0.32310774    -0.32750
C1074       C  0.07192877  0.26846714  0.30904400     0.36300
H1075       H  0.11984888  0.26588169  0.38068412     0.16670
O1076       O  0.06567998  0.26044895  0.41272052    -0.60250
H1077       H  0.01843488  0.26643344  0.30675501     0.16690
O1078       O  0.07451277  0.27088818  0.27495957    -0.60340
H1079       H  0.07566866  0.24773053  0.26701585     0.43680
H1080       H  0.07087066  0.28272744  0.42177094     0.43640
C1081       C  0.92506120  0.97884866  0.15031750    -0.05420
C1082       C  0.94417204  0.97752679  0.18048479    -0.32850
C1083       C  0.92963525  0.98319999  0.21186355     0.36400
C1084       C  0.89536675  0.99118619  0.21326436    -0.05780
C1085       C  0.87656327  0.99044223  0.18272039    -0.32750
C1086       C  0.89085400  0.98499629  0.15199883     0.36300
H1087       H  0.97054568  0.97227149  0.17977354     0.16670
O1088       O  0.94897084  0.98002182  0.24049815    -0.60250
H1089       H  0.85002832  0.99492604  0.18257404     0.16690
O1090       O  0.87067609  0.98478972  0.12370552    -0.60340
H1091       H  0.86661767  0.00842641  0.11813136     0.43680
H1092       H  0.95541346  0.95636343  0.24183602     0.43640
C1093       C  0.89078067  0.00284417  0.28077816    -0.05420
C1094       C  0.87234109  0.99143952  0.30847663    -0.32850
C1095       C  0.88306094  0.99554412  0.34142629     0.36400
C1096       C  0.91236105  0.01304094  0.34879514    -0.05780
C1097       C  0.92944673  0.02784801  0.32223574    -0.32750
C1098       C  0.91833381  0.02372419  0.28853810     0.36300
H1099       H  0.84868262  0.97897152  0.30504694     0.16670
O1100       O  0.86379935  0.98314463  0.36648705    -0.60250
H1101       H  0.95163125  0.04236228  0.32751472     0.16690
O1102       O  0.93454294  0.04027249  0.26377133    -0.60340
H1103       H  0.92903653  0.06396051  0.26680672     0.43680
H1104       H  0.86791015  0.95893999  0.36680962     0.43640
C1105       C  0.82332603  0.09390041  0.23674922    -0.05420
C1106       C  0.85248330  0.08851991  0.21983630    -0.32850
C1107       C  0.86823859  0.05778050  0.22087211     0.36400
C1108       C  0.85452938  0.03043157  0.23909832    -0.05780
C1109       C  0.82573216  0.03705608  0.25750001    -0.32750
C1110       C  0.80986474  0.06807900  0.25585294     0.36300
H1111       H  0.86363383  0.10866257  0.20597899     0.16670
O1112       O  0.89849283  0.05597622  0.20588652    -0.60250
H1113       H  0.81574268  0.01835124  0.27388790     0.16690
O1114       O  0.78180003  0.07320161  0.27383565    -0.60340
H1115       H  0.78995677  0.08159248  0.29585962     0.43680
H1116       H  0.89370147  0.05816377  0.18146310     0.43640
C1117       C  0.97107100  0.24952538  0.35405986    -0.05420
C1118       C  0.94163730  0.26424222  0.36616863    -0.32850
C1119       C  0.91021124  0.25781652  0.35290352     0.36400
C1120       C  0.90576563  0.23481269  0.32702707    -0.05780
C1121       C  0.93421842  0.21922613  0.31458144    -0.32750
C1122       C  0.96649302  0.22611473  0.32794631     0.36300
H1123       H  0.94169020  0.27997926  0.38789069     0.16670
O1124       O  0.88375867  0.27334331  0.36707803    -0.60250
H1125       H  0.93147725  0.20105733  0.29487819     0.16690
O1126       O  0.99285142  0.20798365  0.31709063    -0.60340
H1127       H  0.99455912  0.21313724  0.29288189     0.43680
H1128       H  0.88219127  0.29525964  0.35581314     0.43640
C1129       C  0.59513147  0.26054611  0.17758172    -0.05420
C1130       C  0.56794942  0.28005823  0.18666219    -0.32850
C1131       C  0.53593348  0.27510316  0.17209963     0.36400
C1132       C  0.53051197  0.25051796  0.14699155    -0.05780
C1133       C  0.55744605  0.22866616  0.14175716    -0.32750
C1134       C  0.58900631  0.23372992  0.15602292     0.36300
H1135       H  0.57170836  0.30031978  0.20398791     0.16670
O1136       O  0.51132248  0.29738657  0.17898814    -0.60250
H1137       H  0.55553006  0.20773049  0.12537200     0.16690
O1138       O  0.61399647  0.21252219  0.14756136    -0.60340
H1139       H  0.61333314  0.19432453  0.16431031     0.43680
H1140       H  0.50778876  0.29552037  0.20341083     0.43640
C1141       C  0.00756100  0.27854441  0.89568163    -0.05420
C1142       C  0.98136185  0.28916865  0.91603255    -0.32850
C1143       C  0.98270977  0.31964434  0.93294170     0.36400
C1144       C  0.01074424  0.34020746  0.93024857    -0.05780
C1145       C  0.03594514  0.33113444  0.90930703    -0.32750
C1146       C  0.03367487  0.30240607  0.89045130     0.36300
H1147       H  0.95927682  0.27401296  0.91820046     0.16670
O1148       O  0.95616240  0.32949246  0.95121632    -0.60250
H1149       H  0.05641578  0.34807826  0.90516618     0.16690
O1150       O  0.05566636  0.30039757  0.86492585    -0.60340
H1151       H  0.04480739  0.31211462  0.84566641     0.43680
H1152       H  0.96072160  0.32075475  0.97413714     0.43640
C1153       C  0.98923444  0.14800330  0.92291535    -0.05420
C1154       C  0.98965827  0.17614219  0.94346815    -0.32850
C1155       C  0.99657445  0.20790276  0.93040988     0.36400
C1156       C  0.00153950  0.21202494  0.89553171    -0.05780
C1157       C  0.00277609  0.18280202  0.87592445    -0.32750
C1158       C  0.99735424  0.15156188  0.88920859     0.36300
H1159       H  0.98520862  0.17344715  0.96997912     0.16670
O1160       O  0.99914167  0.23391147  0.95213869    -0.60250
H1161       H  0.00622410  0.18432313  0.84916196     0.16690
O1162       O  0.99802832  0.12480724  0.86823995    -0.60340
H1163       H  0.02192054  0.11920068  0.86642139     0.43680
H1164       H  0.97713115  0.23565240  0.96263604     0.43640
C1165       C  0.09849144  0.23147048  0.82508188    -0.05420
C1166       C  0.09676641  0.23091226  0.85984640    -0.32850
C1167       C  0.06650065  0.23430127  0.87542616     0.36400
C1168       C  0.03645622  0.23982482  0.85627869    -0.05780
C1169       C  0.03812514  0.23909491  0.82106254    -0.32750
C1170       C  0.06887698  0.23504854  0.80551724     0.36300
H1171       H  0.11918900  0.22792776  0.87526625     0.16670
O1172       O  0.06673874  0.23476828  0.90981803    -0.60250
H1173       H  0.01590987  0.24185119  0.80545555     0.16690
O1174       O  0.06980277  0.23549678  0.77122482    -0.60340
H1175       H  0.07342665  0.25902244  0.76508012     0.43680
H1176       H  0.07049440  0.21149852  0.91701135     0.43640
C1177       C  0.23738538  0.32569945  0.90351175    -0.05420
C1178       C  0.23020991  0.35923477  0.90539426    -0.32850
C1179       C  0.23438028  0.37622258  0.93535181     0.36400
C1180       C  0.24604038  0.35972573  0.96511986    -0.05780
C1181       C  0.25545710  0.32622938  0.96233588    -0.32750
C1182       C  0.25070437  0.30913633  0.93195127     0.36300
H1183       H  0.22096680  0.37250115  0.88336150     0.16670
O1184       O  0.22672819  0.40928869  0.93526007    -0.60250
H1185       H  0.26706025  0.31333779  0.98336813     0.16690
O1186       O  0.26020031  0.27665577  0.92999779    -0.60340
H1187       H  0.28350514  0.27732677  0.92250079     0.43680
H1188       H  0.20223324  0.41059781  0.93176552     0.43640
C1189       C  0.26584446  0.17773152  0.59865348    -0.05420
C1190       C  0.26091699  0.19779235  0.57004837    -0.32850
C1191       C  0.25579321  0.18373650  0.53817273     0.36400
C1192       C  0.25578048  0.14884656  0.53468600    -0.05780
C1193       C  0.26169743  0.12943248  0.56409226    -0.32750
C1194       C  0.26600928  0.14336889  0.59542024     0.36300
H1195       H  0.26067122  0.22447719  0.57248799     0.16670
O1196       O  0.25123458  0.20444355  0.51117413    -0.60250
H1197       H  0.26255033  0.10266647  0.56252653     0.16690
O1198       O  0.27181732  0.12308013  0.62265734    -0.60340
H1199       H  0.24959764  0.11474755  0.62891337     0.43680
H1200       H  0.27396651  0.21065330  0.50438950     0.43640
C1201       C  0.50708069  0.35142793  0.58136969    -0.05420
C1202       C  0.50504895  0.32404758  0.55986820    -0.32850
C1203       C  0.50147257  0.29155565  0.57275961     0.36400
C1204       C  0.50058973  0.28641782  0.60791497    -0.05780
C1205       C  0.50172588  0.31484704  0.62865549    -0.32750
C1206       C  0.50513747  0.34652810  0.61584916     0.36300
H1207       H  0.50494787  0.32798121  0.53300529     0.16670
O1208       O  0.49626713  0.26588598  0.55091353    -0.60250
H1209       H  0.50098834  0.31223978  0.65563991     0.16690
O1210       O  0.50623724  0.37282212  0.63743932    -0.60340
H1211       H  0.53017850  0.37613768  0.64310202     0.43680
H1212       H  0.51474564  0.26680122  0.53498876     0.43640
C1213       C  0.49609767  0.22003186  0.60577289    -0.05420
C1214       C  0.46953222  0.19712080  0.61011101    -0.32850
C1215       C  0.46952048  0.16548761  0.59649463     0.36400
C1216       C  0.49731741  0.15417330  0.57985055    -0.05780
C1217       C  0.52398912  0.17596750  0.57494828    -0.32750
C1218       C  0.52332594  0.20872918  0.58690988     0.36300
H1219       H  0.44890226  0.20203300  0.62595308     0.16670
O1220       O  0.44337975  0.14461820  0.60263174    -0.60250
H1221       H  0.54573270  0.16742909  0.56212700     0.16690
O1222       O  0.55078473  0.22846337  0.58280985    -0.60340
H1223       H  0.55482434  0.22907695  0.55843202     0.43680
H1224       H  0.42632654  0.14988321  0.58498773     0.43640
C1225       C  0.46534356  0.25726878  0.64610603    -0.05420
C1226       C  0.46379235  0.25921533  0.68130143    -0.32850
C1227       C  0.43325057  0.26429956  0.69696094     0.36400
C1228       C  0.40358359  0.26790727  0.67755993    -0.05780
C1229       C  0.40513782  0.26733175  0.64275848    -0.32750
C1230       C  0.43522058  0.26258767  0.62705072     0.36300
H1231       H  0.48610918  0.25739531  0.69687847     0.16670
O1232       O  0.43265442  0.26526292  0.73124530    -0.60250
H1233       H  0.38273338  0.27069647  0.62739256     0.16690
O1234       O  0.43508641  0.26309031  0.59263446    -0.60340
H1235       H  0.42214952  0.24338365  0.58528008     0.43680
H1236       H  0.42887813  0.24204085  0.73839386     0.43640
C1237       C  0.25360247  0.85121464  0.96923459    -0.05420
C1238       C  0.23042215  0.85383547  0.94179261    -0.32850
C1239       C  0.23495097  0.83832518  0.91143400     0.36400
C1240       C  0.26431878  0.82091571  0.90570329    -0.05780
C1241       C  0.28753303  0.81695570  0.93242649    -0.32750
C1242       C  0.28231337  0.83152366  0.96396144     0.36300
H1243       H  0.20880434  0.86943815  0.94190863     0.16670
O1244       O  0.21040513  0.84137427  0.88701820    -0.60250
H1245       H  0.31027654  0.80331907  0.92866477     0.16690
O1246       O  0.30671744  0.82874833  0.98855432    -0.60340
H1247       H  0.30918487  0.80474275  0.99322323     0.43680
H1248       H  0.19590813  0.82172593  0.88989344     0.43640
C1249       C  0.34932271  0.92162252  0.00383817    -0.05420
C1250       C  0.32830130  0.92489788  0.97538555    -0.32850
C1251       C  0.29583934  0.91181111  0.97488275     0.36400
C1252       C  0.28374486  0.89437515  0.00313539    -0.05780
C1253       C  0.30592074  0.89157853  0.03144962    -0.32750
C1254       C  0.33742481  0.90582023  0.03228230     0.36300
H1255       H  0.33722619  0.93729394  0.95322526     0.16670
O1256       O  0.27641741  0.91540080  0.94627912    -0.60250
H1257       H  0.30061605  0.87662136  0.05305637     0.16690
O1258       O  0.35761573  0.90135289  0.06021998    -0.60340
H1259       H  0.35137534  0.91919126  0.07577459     0.43680
H1260       H  0.28679645  0.90124238  0.92928057     0.43640
C1261       C  0.21771977  0.89433249  0.99714894    -0.05420
C1262       C  0.18782213  0.87568357  0.99851894    -0.32850
C1263       C  0.15684006  0.88980786  0.99328297     0.36400
C1264       C  0.15416490  0.92382282  0.98691262    -0.05780
C1265       C  0.18316647  0.94334399  0.98710581    -0.32750
C1266       C  0.21471634  0.92913263  0.99315167     0.36300
H1267       H  0.18863482  0.84908659  0.00195746     0.16670
O1268       O  0.12929315  0.86969851  0.99366991    -0.60250
H1269       H  0.18129043  0.96987743  0.98349860     0.16690
O1270       O  0.24169174  0.94975783  0.99560535    -0.60340
H1271       H  0.24397178  0.95529127  0.01971228     0.43680
H1272       H  0.12590271  0.86219768  0.97022579     0.43640
C1273       C  0.24523447  0.85580740  0.03504300    -0.05420
C1274       C  0.24025177  0.87654639  0.06307030    -0.32850
C1275       C  0.23335318  0.86396141  0.09454484     0.36400
C1276       C  0.23005030  0.82983099  0.09913631    -0.05780
C1277       C  0.23321628  0.80873305  0.07159373    -0.32750
C1278       C  0.24089121  0.82124941  0.03973330     0.36300
H1279       H  0.24218580  0.90318145  0.06038667     0.16670
O1280       O  0.22959775  0.88539858  0.12066702    -0.60250
H1281       H  0.23021256  0.78226589  0.07488126     0.16690
O1282       O  0.24161767  0.79970662  0.01340449    -0.60340
H1283       H  0.25982455  0.78389991  0.01892941     0.43680
H1284       H  0.20548787  0.89053470  0.12065034     0.43640
C1285       C  0.32580958  0.90329248  0.23650559    -0.05420
C1286       C  0.35987790  0.90689273  0.24262420    -0.32850
C1287       C  0.37438967  0.93816066  0.24585381     0.36400
C1288       C  0.35477692  0.96767839  0.24535105    -0.05780
C1289       C  0.32041286  0.96352741  0.23793077    -0.32750
C1290       C  0.30604030  0.93202399  0.23395431     0.36300
H1291       H  0.37580618  0.88528415  0.24371561     0.16670
O1292       O  0.40840834  0.93949407  0.24865091    -0.60250
H1293       H  0.30425874  0.98391863  0.23241069     0.16690
O1294       O  0.27250693  0.92978858  0.22705200    -0.60340
H1295       H  0.26208865  0.92827984  0.24922955     0.43680
H1296       H  0.41635473  0.93677733  0.22554054     0.43640
C1297       C  0.17372396  0.59981832  0.25962094    -0.05420
C1298       C  0.13923334  0.59755888  0.25739098    -0.32850
C1299       C  0.12359900  0.56710388  0.25398066     0.36400
C1300       C  0.14248499  0.53729121  0.25171095    -0.05780
C1301       C  0.17740078  0.54008435  0.25115677    -0.32750
C1302       C  0.19301100  0.57097292  0.25584748     0.36300
H1303       H  0.12402377  0.61950595  0.25970408     0.16670
O1304       O  0.08946837  0.56652585  0.25415249    -0.60250
H1305       H  0.19272692  0.51860214  0.24733796     0.16690
O1306       O  0.22707636  0.57274181  0.25629800    -0.60340
H1307       H  0.23297144  0.57733436  0.23277062     0.43680
H1308       H  0.08343624  0.57067545  0.27766502     0.43640
C1309       C  0.09210782  0.73889228  0.17610457    -0.05420
C1310       C  0.07023690  0.76486945  0.18294018    -0.32850
C1311       C  0.03879440  0.76719971  0.16632544     0.36400
C1312       C  0.02837135  0.74295153  0.14254573    -0.05780
C1313       C  0.05218719  0.71796534  0.13542569    -0.32750
C1314       C  0.08263623  0.71530357  0.15250427     0.36300
H1315       H  0.07779883  0.78379236  0.20068295     0.16670
O1316       O  0.01912467  0.79395693  0.17268506    -0.60250
H1317       H  0.04856104  0.70031612  0.11551319     0.16690
O1318       O  0.10400908  0.69033774  0.14439064    -0.60340
H1319       H  0.09824103  0.67155900  0.15926876     0.43680
H1320       H  0.02988581  0.81299419  0.16148029     0.43640
C1321       C  0.99165333  0.71342147  0.09987824    -0.05420
C1322       C  0.99215219  0.71127235  0.06460395    -0.32850
C1323       C  0.98765608  0.68054689  0.04840224     0.36400
C1324       C  0.98274506  0.65138425  0.06733675    -0.05780
C1325       C  0.98214203  0.65343445  0.10208494    -0.32750
C1326       C  0.98638288  0.68349597  0.11829058     0.36300
H1327       H  0.99538925  0.73320567  0.04942376     0.16670
O1328       O  0.98860273  0.67924864  0.01415498    -0.60250
H1329       H  0.97825911  0.63136874  0.11708195     0.16690
O1330       O  0.98539216  0.68352185  0.15266513    -0.60340
H1331       H  0.00601261  0.67224087  0.16073585     0.43680
H1332       H  0.01222380  0.67494234  0.00917742     0.43640
C1333       C  0.01630973  0.84326373  0.07216868    -0.05420
C1334       C  0.98854055  0.83917994  0.09177137    -0.32850
C1335       C  0.98068797  0.80904485  0.10642450     0.36400
C1336       C  0.99978164  0.77969750  0.10011893    -0.05780
C1337       C  0.02747785  0.78395487  0.07930675    -0.32750
C1338       C  0.03587505  0.81516075  0.06564275     0.36300
H1339       H  0.97276798  0.86012266  0.09708214     0.16670
O1340       O  0.95489966  0.81006908  0.12815873    -0.60250
H1341       H  0.04365801  0.76315910  0.07479971     0.16690
O1342       O  0.06364448  0.81788735  0.04665653    -0.60340
H1343       H  0.08209043  0.82297725  0.06282120     0.43680
H1344       H  0.96393503  0.82069941  0.14880207     0.43640
C1345       C  0.24315922  0.64448455  0.53479183    -0.05420
C1346       C  0.23413542  0.67821800  0.53789022    -0.32850
C1347       C  0.22746204  0.69242251  0.56910382     0.36400
C1348       C  0.22898038  0.67303412  0.59850719    -0.05780
C1349       C  0.23650423  0.63956753  0.59581207    -0.32750
C1350       C  0.24216436  0.62523365  0.56484387     0.36300
H1351       H  0.22904299  0.69350332  0.51624812     0.16670
O1352       O  0.21903957  0.72524535  0.57037417    -0.60250
H1353       H  0.23680717  0.62382298  0.61790442     0.16690
O1354       O  0.24529135  0.59161611  0.56440536    -0.60340
H1355       H  0.22219155  0.58293195  0.56335712     0.43680
H1356       H  0.24047127  0.73723061  0.57318847     0.43640
C1357       C  0.35031785  0.58392100  0.50997998    -0.05420
C1358       C  0.32362979  0.56189027  0.51231003    -0.32850
C1359       C  0.29044947  0.57329020  0.51189468     0.36400
C1360       C  0.28351519  0.60784031  0.50689187    -0.05780
C1361       C  0.31153111  0.62912408  0.50933857    -0.32750
C1362       C  0.34409511  0.61775603  0.50922424     0.36300
H1363       H  0.32849732  0.53561725  0.51494994     0.16670
O1364       O  0.26633873  0.55066801  0.51962030    -0.60250
H1365       H  0.30843046  0.65532553  0.51122534     0.16690
O1366       O  0.36984192  0.64011399  0.50950174    -0.60340
H1367       H  0.37250373  0.64659139  0.48572537     0.43680
H1368       H  0.27307293  0.54059961  0.54151062     0.43640
C1369       C  0.15258196  0.57526173  0.48247455    -0.05420
C1370       C  0.15450445  0.60885710  0.48983799    -0.32850
C1371       C  0.18500876  0.62479198  0.49373202     0.36400
C1372       C  0.21557812  0.60685950  0.49398689    -0.05780
C1373       C  0.21313711  0.57375213  0.48267584    -0.32750
C1374       C  0.18230353  0.55780233  0.47784504     0.36300
H1375       H  0.13203672  0.62352050  0.49117022     0.16670
O1376       O  0.18426410  0.65856260  0.49525523    -0.60250
H1377       H  0.23452029  0.56063271  0.47425423     0.16690
O1378       O  0.18167222  0.52543699  0.46773850    -0.60340
H1379       H  0.18286634  0.51220235  0.48873404     0.43680
H1380       H  0.18497924  0.66628551  0.47165964     0.43640
C1381       C  0.25475124  0.64561845  0.46662302    -0.05420
C1382       C  0.25273968  0.62608269  0.43711309    -0.32850
C1383       C  0.25786563  0.63861570  0.40511378     0.36400
C1384       C  0.26775114  0.67147525  0.40084090    -0.05780
C1385       C  0.27237334  0.69113451  0.42940188    -0.32750
C1386       C  0.26712491  0.67862788  0.46197256     0.36300
H1387       H  0.24784586  0.59999743  0.43827281     0.16670
O1388       O  0.25480151  0.61771256  0.37824512    -0.60250
H1389       H  0.28084071  0.71645517  0.42663238     0.16690
O1390       O  0.27644413  0.69853942  0.48829594    -0.60340
H1391       H  0.29994244  0.70504136  0.48488141     0.43680
H1392       H  0.23057275  0.61641617  0.37300971     0.43640
C1393       C  0.57730338  0.48066131  0.15310997    -0.05420
C1394       C  0.55885522  0.47411941  0.18167789    -0.32850
C1395       C  0.57243455  0.47899460  0.21429113     0.36400
C1396       C  0.60540748  0.49214127  0.21876471    -0.05780
C1397       C  0.62410612  0.49497512  0.18927262    -0.32750
C1398       C  0.61054768  0.49034382  0.15735398     0.36300
H1399       H  0.53373952  0.46458425  0.17879998     0.16670
O1400       O  0.55494355  0.46621297  0.24042913    -0.60250
H1401       H  0.65029631  0.50036355  0.19055248     0.16690
O1402       O  0.63058175  0.49486089  0.13041398    -0.60340
H1403       H  0.64036046  0.47281662  0.12619823     0.43680
H1404       H  0.53179372  0.47453588  0.23774251     0.43640
C1405       C  0.58214277  0.51203502  0.35206703    -0.05420
C1406       C  0.61614187  0.50838449  0.34825726    -0.32850
C1407       C  0.62952121  0.50493578  0.31664623     0.36400
C1408       C  0.60876309  0.50298393  0.28712705    -0.05780
C1409       C  0.57439013  0.50887387  0.29160513    -0.32750
C1410       C  0.56115035  0.51303885  0.32350953     0.36300
H1411       H  0.63275456  0.50866626  0.37011829     0.16670
O1412       O  0.66343103  0.50544843  0.31493594    -0.60250
H1413       H  0.55752177  0.51312668  0.27079095     0.16690
O1414       O  0.52766409  0.51822717  0.32642014    -0.60340
H1415       H  0.51776696  0.49582019  0.32832753     0.43680
H1416       H  0.67132386  0.48548938  0.32739902     0.43640
C1417       C  0.64745822  0.46660790  0.25698585    -0.05420
C1418       C  0.62849078  0.43708599  0.25946693    -0.32850
C1419       C  0.64247206  0.40572818  0.26228556     0.36400
C1420       C  0.67696637  0.40212184  0.26503381    -0.05780
C1421       C  0.69680525  0.43067970  0.26485891    -0.32750
C1422       C  0.68276329  0.46268493  0.26169087     0.36300
H1423       H  0.60187218  0.43795870  0.25986744     0.16670
O1424       O  0.62178130  0.37875596  0.26415603    -0.60250
H1425       H  0.72355491  0.42831183  0.26798056     0.16690
O1426       O  0.70384378  0.48904793  0.26636164    -0.60340
H1427       H  0.71665333  0.48504237  0.28760052     0.43680
H1428       H  0.61502490  0.37380437  0.24063678     0.43640
C1429       C  0.75421802  0.35412146  0.46852256    -0.05420
C1430       C  0.73778968  0.36467936  0.43839253    -0.32850
C1431       C  0.74417316  0.35120637  0.40732474     0.36400
C1432       C  0.76820002  0.32622838  0.40424256    -0.05780
C1433       C  0.78566509  0.31577353  0.43354003    -0.32750
C1434       C  0.77925478  0.32967943  0.46523363     0.36300
H1435       H  0.72030361  0.38493768  0.43784151     0.16670
O1436       O  0.72630296  0.36304386  0.38002405    -0.60250
H1437       H  0.80480512  0.29708194  0.43190073     0.16690
O1438       O  0.79887943  0.32053903  0.49237431    -0.60340
H1439       H  0.79534554  0.29641646  0.49538874     0.43680
H1440       H  0.73839761  0.38314682  0.37273730     0.43640
C1441       C  0.71476053  0.39251726  0.49772096    -0.05420
C1442       C  0.71050948  0.42714437  0.49979672    -0.32850
C1443       C  0.67847784  0.44134293  0.49758244     0.36400
C1444       C  0.65013136  0.42097445  0.49399487    -0.05780
C1445       C  0.65403993  0.38693847  0.49198780    -0.32750
C1446       C  0.68547780  0.37273245  0.49317241     0.36300
H1447       H  0.73156473  0.44326297  0.50442873     0.16670
O1448       O  0.67507093  0.47497721  0.50010693    -0.60250
H1449       H  0.63237736  0.37103276  0.48938506     0.16690
O1450       O  0.68736687  0.33893691  0.49050180    -0.60340
H1451       H  0.68145613  0.33389583  0.46679994     0.43680
H1452       H  0.67285068  0.47922474  0.52436928     0.43640
C1453       C  0.78164987  0.39522814  0.50597477    -0.05420
C1454       C  0.80652779  0.38485859  0.52989777    -0.32850
C1455       C  0.83750740  0.40014205  0.53294065     0.36400
C1456       C  0.84543224  0.42642967  0.51186591    -0.05780
C1457       C  0.82208320  0.43673955  0.48718114    -0.32750
C1458       C  0.79084522  0.42088078  0.48350901     0.36300
H1459       H  0.80304958  0.36362404  0.54600505     0.16670
O1460       O  0.86022733  0.38878253  0.55656833    -0.60250
H1461       H  0.82847608  0.45645131  0.46999029     0.16690
O1462       O  0.76994791  0.43024119  0.45745078    -0.60340
H1463       H  0.78029634  0.42169550  0.43698393     0.43680
H1464       H  0.87241022  0.37080891  0.54541360     0.43640
C1465       C  0.34941565  0.53089852  0.74370264    -0.05420
C1466       C  0.34911812  0.54981471  0.71338887    -0.32850
C1467       C  0.33304926  0.58013650  0.71004537     0.36400
C1468       C  0.31901824  0.59471188  0.73775247    -0.05780
C1469       C  0.31914526  0.57743779  0.76827393    -0.32750
C1470       C  0.33316937  0.54556153  0.77124010     0.36300
H1471       H  0.36220873  0.54268134  0.69151000     0.16670
O1472       O  0.33340798  0.59657450  0.67986589    -0.60250
H1473       H  0.30816405  0.58862520  0.78992370     0.16690
O1474       O  0.33269317  0.52997613  0.80183564    -0.60340
H1475       H  0.30895521  0.52533695  0.80609800     0.43680
H1476       H  0.31387365  0.58796146  0.66692448     0.43640
C1477       C  0.32512644  0.40164115  0.76443109    -0.05420
C1478       C  0.30452772  0.42975184  0.76329284    -0.32850
C1479       C  0.31745265  0.46130421  0.75607877     0.36400
C1480       C  0.35209222  0.46532225  0.75143843    -0.05780
C1481       C  0.37195272  0.43632224  0.75110670    -0.32750
C1482       C  0.35897762  0.40521377  0.75762100     0.36300
H1483       H  0.27811370  0.42716290  0.76732217     0.16670
O1484       O  0.29594334  0.48747968  0.75403485    -0.60250
H1485       H  0.39852746  0.43811762  0.74758675     0.16690
O1486       O  0.38006442  0.37853845  0.75823569    -0.60340
H1487       H  0.38833247  0.37668047  0.78180087     0.43680
H1488       H  0.28753347  0.48789455  0.73046737     0.43640
C1489       C  0.39338665  0.50335121  0.78091453    -0.05420
C1490       C  0.41435266  0.53155041  0.78431307    -0.32850
C1491       C  0.43059961  0.53975611  0.81511899     0.36400
C1492       C  0.42598733  0.51995657  0.84386874    -0.05780
C1493       C  0.40638671  0.49174609  0.84058900    -0.32750
C1494       C  0.38929073  0.48404786  0.81108409     0.36300
H1495       H  0.41693307  0.54830404  0.76326695     0.16670
O1496       O  0.44945089  0.56800267  0.81708736    -0.60250
H1497       H  0.40244170  0.47573974  0.86202035     0.16690
O1498       O  0.36656107  0.45895746  0.81416411    -0.60340
H1499       H  0.34691135  0.46901009  0.82459089     0.43680
H1500       H  0.47185874  0.56136678  0.80987033     0.43640
C1501       C  0.39015332  0.49334614  0.71438399    -0.05420
C1502       C  0.42460314  0.49905248  0.71101823    -0.32850
C1503       C  0.43925036  0.49787032  0.67936077     0.36400
C1504       C  0.41990181  0.48964127  0.65069262    -0.05780
C1505       C  0.38672180  0.48116768  0.65403521    -0.32750
C1506       C  0.37173361  0.48296549  0.68494412     0.36300
H1507       H  0.44034235  0.50527390  0.73234505     0.16670
O1508       O  0.47210560  0.50625584  0.67648238    -0.60250
H1509       H  0.37173268  0.47449913  0.63210506     0.16690
O1510       O  0.33826722  0.47618538  0.68576884    -0.60340
H1511       H  0.32690608  0.49500502  0.67426128     0.43680
H1512       H  0.48437482  0.48502758  0.67819964     0.43640
C1513       C  0.73188981  0.17249520  0.10024431    -0.05420
C1514       C  0.73476589  0.19298590  0.07181290    -0.32850
C1515       C  0.74160568  0.17967038  0.04019614     0.36400
C1516       C  0.74609807  0.14507654  0.03676890    -0.05780
C1517       C  0.74138633  0.12497521  0.06555312    -0.32750
C1518       C  0.73500505  0.13823139  0.09670021     0.36300
H1519       H  0.73220189  0.21954229  0.07419446     0.16670
O1520       O  0.74327591  0.20072592  0.01328646    -0.60250
H1521       H  0.74356728  0.09831735  0.06389591     0.16690
O1522       O  0.73101348  0.11724711  0.12345990    -0.60340
H1523       H  0.75387762  0.11090652  0.13091087     0.43680
H1524       H  0.71989283  0.20640233  0.00721748     0.43640
C1525       C  0.65278779  0.08081515  0.99674149    -0.05420
C1526       C  0.68034319  0.05959935  0.00016044    -0.32850
C1527       C  0.71311093  0.07231596  0.00253575     0.36400
C1528       C  0.71858110  0.10699537  0.00015236    -0.05780
C1529       C  0.68998230  0.12748898  0.99636042    -0.32750
C1530       C  0.65788622  0.11489280  0.99522994     0.36300
H1531       H  0.67636914  0.03316138  0.00241469     0.16670
O1532       O  0.73866635  0.05084200  0.00973341    -0.60250
H1533       H  0.69269649  0.15407428  0.99450080     0.16690
O1534       O  0.63146528  0.13625366  0.99208896    -0.60340
H1535       H  0.62715600  0.14363001  0.01520628     0.43680
H1536       H  0.73982893  0.03608544  0.99004461     0.43640
C1537       C  0.78532598  0.10511038  0.00867083    -0.05420
C1538       C  0.79404644  0.08219040  0.98372056    -0.32850
C1539       C  0.82462815  0.06518743  0.98514487     0.36400
C1540       C  0.84754670  0.07086067  0.01169931    -0.05780
C1541       C  0.84010194  0.09403111  0.03579228    -0.32750
C1542       C  0.81036193  0.11180423  0.03422102     0.36300
H1543       H  0.77717114  0.07789330  0.96258335     0.16670
O1544       O  0.83194841  0.04327569  0.96035714    -0.60250
H1545       H  0.85849312  0.09984093  0.05526660     0.16690
O1546       O  0.80857209  0.13837142  0.05535484    -0.60340
H1547       H  0.80904786  0.12905580  0.07842540     0.43680
H1548       H  0.84336463  0.05662148  0.94318471     0.43640
C1549       C  0.14707527  0.96511744  0.75745803    -0.05420
C1550       C  0.18024370  0.95998436  0.76878580    -0.32850
C1551       C  0.19349963  0.92818226  0.77352798     0.36400
C1552       C  0.17333981  0.90001753  0.76845130    -0.05780
C1553       C  0.13978538  0.90458443  0.75997213    -0.32750
C1554       C  0.12647143  0.93627735  0.75584802     0.36300
H1555       H  0.19589949  0.97999109  0.77675974     0.16670
O1556       O  0.22624558  0.92511451  0.78359542    -0.60250
H1557       H  0.12333768  0.88341495  0.75742388     0.16690
O1558       O  0.09271150  0.93863087  0.75093610    -0.60340
H1559       H  0.08347280  0.93861423  0.77370455     0.43680
H1560       H  0.23882237  0.92485885  0.76258624     0.43640
C1561       C  0.15029030  0.03331991  0.74571971    -0.05420
C1562       C  0.12966154  0.06188563  0.74407259    -0.32850
C1563       C  0.14190606  0.09380924  0.73954645     0.36400
C1564       C  0.17571099  0.09878446  0.73404984    -0.05780
C1565       C  0.19663460  0.07118693  0.73332898    -0.32750
C1566       C  0.18476430  0.03883373  0.73908070     0.36300
H1567       H  0.10302437  0.05965886  0.74583714     0.16670
O1568       O  0.12005807  0.11987166  0.73877895    -0.60250
H1569       H  0.22273261  0.07463487  0.72813268     0.16690
O1570       O  0.20669621  0.01362408  0.73398115    -0.60340
H1571       H  0.22650299  0.01806427  0.74869690     0.43680
H1572       H  0.11613497  0.12500879  0.76259867     0.43640
C1573       C  0.11387833  0.99514026  0.71431721    -0.05420
C1574       C  0.07931855  0.99201349  0.70676760    -0.32850
C1575       C  0.06692576  0.99028486  0.67347051     0.36400
C1576       C  0.08888472  0.99094257  0.64671749    -0.05780
C1577       C  0.12283628  0.99126676  0.65362050    -0.32750
C1578       C  0.13522109  0.99150992  0.68651355     0.36300
H1579       H  0.06147936  0.98788965  0.72575596     0.16670
O1580       O  0.03328484  0.98768008  0.66740471    -0.60250
H1581       H  0.14009105  0.99003207  0.63327707     0.16690
O1582       O  0.16864250  0.98665977  0.69103042    -0.60340
H1583       H  0.17180527  0.96233891  0.69022411     0.43680
H1584       H  0.02522217  0.01079844  0.66533409     0.43640
C1585       C  0.07810485  0.01517888  0.84569710    -0.05420
C1586       C  0.11223330  0.00959710  0.84479575    -0.32850
C1587       C  0.12838806  0.00668873  0.81452450     0.36400
C1588       C  0.11043497  0.00589668  0.78314348    -0.05780
C1589       C  0.07636285  0.01476891  0.78439121    -0.32750
C1590       C  0.06023746  0.01871409  0.81503096     0.36300
H1591       H  0.12705514  0.00885813  0.86787901     0.16670
O1592       O  0.16239635  0.00641138  0.81618302    -0.60250
H1593       H  0.06225382  0.02197573  0.76241982     0.16690
O1594       O  0.02710974  0.02674545  0.81452688    -0.60340
H1595       H  0.01517410  0.00524692  0.81447366     0.43680
H1596       H  0.16917638  0.03002519  0.81645460     0.43640
C1597       C  0.47041686  0.75667813  0.35676972    -0.05420
C1598       C  0.44762648  0.78359280  0.36076293    -0.32850
C1599       C  0.41736833  0.78616217  0.34355266     0.36400
C1600       C  0.40674626  0.76107803  0.32234309    -0.05780
C1601       C  0.42680277  0.73298210  0.31894961    -0.32750
C1602       C  0.45792451  0.73020346  0.33633076     0.36300
H1603       H  0.45111239  0.80289410  0.37897235     0.16670
O1604       O  0.39730516  0.81293504  0.34917543    -0.60250
H1605       H  0.41773842  0.71249614  0.30387777     0.16690
O1606       O  0.47400499  0.70026849  0.33576630    -0.60340
H1607       H  0.45874628  0.68394506  0.34590318     0.43680
H1608       H  0.38379635  0.80655267  0.36861182     0.43640
C1609       C  0.50063855  0.72260026  0.40288178    -0.05420
C1610       C  0.46887961  0.70947095  0.41064373    -0.32850
C1611       C  0.46476200  0.67614647  0.42052251     0.36400
C1612       C  0.49265863  0.65528208  0.42396366    -0.05780
C1613       C  0.52416770  0.66938321  0.42146020    -0.32750
C1614       C  0.52840698  0.70241253  0.41243007     0.36300
H1615       H  0.44670245  0.72428127  0.40672082     0.16670
O1616       O  0.43329122  0.66381358  0.42430546    -0.60250
H1617       H  0.54620609  0.65468644  0.42694711     0.16690
O1618       O  0.56020515  0.71421713  0.41400449    -0.60340
H1619       H  0.56482128  0.71878850  0.43806566     0.43680
H1620       H  0.42769234  0.66889421  0.44773891     0.43640
C1621       C  0.50552632  0.78773565  0.39869118    -0.05420
C1622       C  0.51117118  0.81604682  0.37818628    -0.32850
C1623       C  0.51233942  0.84768612  0.39107254     0.36400
C1624       C  0.50861629  0.85240076  0.42527391    -0.05780
C1625       C  0.50405237  0.82501394  0.44655184    -0.32750
C1626       C  0.50235452  0.79268581  0.43357012     0.36300
H1627       H  0.51360171  0.81340097  0.35136548     0.16670
O1628       O  0.51629445  0.87410746  0.36976701    -0.60250
H1629       H  0.50096504  0.82879983  0.47311242     0.16690
O1630       O  0.49701529  0.76679069  0.45505604    -0.60340
H1631       H  0.51935027  0.76092566  0.46441309     0.43680
H1632       H  0.54068418  0.87741579  0.36865252     0.43640
C1633       C  0.78418158  0.60208984  0.99267331    -0.05420
C1634       C  0.78680739  0.56729174  0.99381405    -0.32850
C1635       C  0.81709598  0.55158669  0.98728062     0.36400
C1636       C  0.84546397  0.57056109  0.97991862    -0.05780
C1637       C  0.84314781  0.60490241  0.97890358    -0.32750
C1638       C  0.81329425  0.62066582  0.98496669     0.36300
H1639       H  0.76537319  0.55200791  0.99860514     0.16670
O1640       O  0.81901938  0.51776400  0.98938848    -0.60250
H1641       H  0.86475184  0.61982171  0.97326765     0.16690
O1642       O  0.81251384  0.65463041  0.98293517    -0.60340
H1643       H  0.82638220  0.66270768  0.00212829     0.43680
H1644       H  0.81129698  0.50971273  0.96709222     0.43640
C1645       C  0.65469857  0.57271710  0.01595433    -0.05420
C1646       C  0.68240664  0.56647679  0.03738205    -0.32850
C1647       C  0.71399665  0.58003064  0.03062227     0.36400
C1648       C  0.71866701  0.59977241  0.00152755    -0.05780
C1649       C  0.69019689  0.60464498  0.98014231    -0.32750
C1650       C  0.65945165  0.59106626  0.98657858     0.36300
H1651       H  0.67940723  0.55198721  0.06001425     0.16670
O1652       O  0.73975597  0.57491975  0.05329481    -0.60250
H1653       H  0.69008213  0.62079042  0.95856341     0.16690
O1654       O  0.63382961  0.59688334  0.96385839    -0.60340
H1655       H  0.63445923  0.57817384  0.94793803     0.43680
H1656       H  0.73450471  0.58857609  0.07300125     0.43640
C1657       C  0.75340603  0.67125525  0.09374308    -0.05420
C1658       C  0.72641516  0.67621050  0.07125934    -0.32850
C1659       C  0.72660927  0.66328650  0.03856895     0.36400
C1660       C  0.75382083  0.64386992  0.02801790    -0.05780
C1661       C  0.78123556  0.64059288  0.05119622    -0.32750
C1662       C  0.78150619  0.65474921  0.08282511     0.36300
H1663       H  0.70475361  0.68961065  0.07927275     0.16670
O1664       O  0.69928516  0.66828704  0.01781279    -0.60250
H1665       H  0.80235654  0.62506582  0.04668028     0.16690
O1666       O  0.80831499  0.64931258  0.10417054    -0.60340
H1667       H  0.82465923  0.66676218  0.09854462     0.43680
H1668       H  0.68075485  0.65615696  0.02831286     0.43640
C1669       C  0.83140324  0.89768663  0.25227952    -0.05420
C1670       C  0.81049431  0.92360261  0.24111242    -0.32850
C1671       C  0.82266198  0.95634271  0.23803158     0.36400
C1672       C  0.85640039  0.96335887  0.24669325    -0.05780
C1673       C  0.87681636  0.93630914  0.25708452    -0.32750
C1674       C  0.86469698  0.90430575  0.26006845     0.36300
H1675       H  0.78494826  0.91823154  0.23365817     0.16670
O1676       O  0.80229703  0.98006437  0.22387311    -0.60250
H1677       H  0.90280590  0.94020027  0.26353438     0.16690
O1678       O  0.88598215  0.87932675  0.26983616    -0.60340
H1679       H  0.88502122  0.87851070  0.29461326     0.43680
H1680       H  0.78273545  0.98139749  0.23840717     0.43640
C1681       C  0.60165159  0.74468680  0.33099291    -0.05420
C1682       C  0.59831345  0.76341660  0.35970940    -0.32850
C1683       C  0.56801166  0.76695498  0.37501898     0.36400
C1684       C  0.53781232  0.75270272  0.36070593    -0.05780
C1685       C  0.54151941  0.73529977  0.33031217    -0.32750
C1686       C  0.57293401  0.73052304  0.31608359     0.36300
H1687       H  0.61998860  0.77472243  0.37171232     0.16670
O1688       O  0.56896926  0.78357541  0.40504703    -0.60250
H1689       H  0.52053403  0.72552155  0.31664351     0.16690
O1690       O  0.57505448  0.71239461  0.28732416    -0.60340
H1691       H  0.57245866  0.72868792  0.26876883     0.43680
H1692       H  0.58492418  0.77178646  0.42027521     0.43640
C1693       C  0.64092158  0.53472593  0.24601938    -0.05420
C1694       C  0.67312926  0.54141485  0.23398053    -0.32850
C1695       C  0.68500595  0.57397594  0.23015060     0.36400
C1696       C  0.66426009  0.60088870  0.23686922    -0.05780
C1697       C  0.63137594  0.59487733  0.24460366    -0.32750
C1698       C  0.61926675  0.56274717  0.24694831     0.36300
H1699       H  0.68849340  0.52217769  0.22441849     0.16670
O1700       O  0.71676633  0.57912819  0.21956508    -0.60250
H1701       H  0.61438624  0.61540390  0.24751985     0.16690
O1702       O  0.58550159  0.55936572  0.24806800    -0.60340
H1703       H  0.57759268  0.55865443  0.22433486     0.43680
H1704       H  0.73083926  0.57984073  0.24033681     0.43640
C1705       C  0.96156421  0.74730877  0.13774199    -0.05420
C1706       C  0.95794432  0.74924301  0.17276737    -0.32850
C1707       C  0.92618154  0.75263045  0.18645149     0.36400
C1708       C  0.89751479  0.75229377  0.16533882    -0.05780
C1709       C  0.90075341  0.74872254  0.13104741    -0.32750
C1710       C  0.93187985  0.74706538  0.11710229     0.36300
H1711       H  0.97936725  0.74836994  0.18963816     0.16670
O1712       O  0.92338431  0.75574200  0.22041928    -0.60250
H1713       H  0.87881447  0.74811910  0.11463467     0.16690
O1714       O  0.93311458  0.74616244  0.08280017    -0.60340
H1715       H  0.92867212  0.76912004  0.07500402     0.43680
H1716       H  0.92118391  0.73279738  0.22903602     0.43640
C1717       C  0.78730300  0.89384212  0.49355366    -0.05420
C1718       C  0.79109601  0.92852082  0.49488877    -0.32850
C1719       C  0.82297110  0.94295293  0.49390635     0.36400
C1720       C  0.85129371  0.92269659  0.49178303    -0.05780
C1721       C  0.84771874  0.88866137  0.48966833    -0.32750
C1722       C  0.81651038  0.87420502  0.48979488     0.36300
H1723       H  0.76965295  0.94446084  0.49629701     0.16670
O1724       O  0.82625006  0.97668065  0.49555313    -0.60250
H1725       H  0.86946223  0.87295880  0.48809886     0.16690
O1726       O  0.81484847  0.84025493  0.48904644    -0.60340
H1727       H  0.82057808  0.83400755  0.46592705     0.43680
H1728       H  0.82875542  0.98165616  0.51977450     0.43640
C1729       C  0.72072614  0.89677341  0.49724630    -0.05420
C1730       C  0.69407073  0.89085413  0.47394654    -0.32850
C1731       C  0.66241218  0.90315780  0.47760972     0.36400
C1732       C  0.65458992  0.92175175  0.50594387    -0.05780
C1733       C  0.68049334  0.92899145  0.52932151    -0.32750
C1734       C  0.71323603  0.91689233  0.52514036     0.36300
H1735       H  0.69587124  0.87440780  0.45297772     0.16670
O1736       O  0.63879990  0.89486290  0.45358065    -0.60250
H1737       H  0.67528268  0.94341677  0.55131598     0.16690
O1738       O  0.73689581  0.92252736  0.54986390    -0.60340
H1739       H  0.74101876  0.94672750  0.54952693     0.43680
H1740       H  0.64114181  0.91159471  0.43550802     0.43640
C1741       C  0.75234264  0.85723560  0.46114564    -0.05420
C1742       C  0.74880611  0.82268688  0.45740746    -0.32850
C1743       C  0.74570671  0.80857993  0.42525260     0.36400
C1744       C  0.74744995  0.82885664  0.39648999    -0.05780
C1745       C  0.75190608  0.86271242  0.40001122    -0.32750
C1746       C  0.75418868  0.87697962  0.43138638     0.36300
H1747       H  0.74859074  0.80655298  0.47905969     0.16670
O1748       O  0.74246825  0.77495640  0.42218927    -0.60250
H1749       H  0.75307020  0.87855301  0.37803823     0.16690
O1750       O  0.75564329  0.91090729  0.43281337    -0.60340
H1751       H  0.77794009  0.91704643  0.42468664     0.43680
H1752       H  0.71819864  0.77066124  0.42271899     0.43640
C1753       C  0.89566382  0.50694427  0.71272722    -0.05420
C1754       C  0.87618172  0.51348535  0.68322252    -0.32850
C1755       C  0.89020128  0.51840347  0.65222941     0.36400
C1756       C  0.92478321  0.51809334  0.64944813    -0.05780
C1757       C  0.94489717  0.51349054  0.67850531    -0.32750
C1758       C  0.93076589  0.50760123  0.70998790     0.36300
H1759       H  0.84927346  0.51390171  0.68422574     0.16670
O1760       O  0.86965973  0.52361029  0.62469393    -0.60250
H1761       H  0.97173185  0.51385817  0.67671708     0.16690
O1762       O  0.95144779  0.50488725  0.73773619    -0.60340
H1763       H  0.96556930  0.48524601  0.73390884     0.43680
H1764       H  0.86672440  0.54794449  0.62325997     0.43640
C1765       C  0.89522644  0.49518477  0.77924954    -0.05420
C1766       C  0.88891092  0.51497604  0.80767872    -0.32850
C1767       C  0.90163232  0.50774057  0.83943888     0.36400
C1768       C  0.92051838  0.47900602  0.84525460    -0.05780
C1769       C  0.92744868  0.45876443  0.81774525    -0.32750
C1770       C  0.91464974  0.46628050  0.78524459     0.36300
H1771       H  0.87241185  0.53595673  0.80678555     0.16670
O1772       O  0.89454728  0.52910519  0.86486018    -0.60250
H1773       H  0.94216179  0.43655949  0.82149276     0.16690
O1774       O  0.92059047  0.44473526  0.75970937    -0.60340
H1775       H  0.90705053  0.42479668  0.76449039     0.43680
H1776       H  0.91264058  0.54582998  0.86482350     0.43640
C1777       C  0.81993236  0.40768290  0.73526995    -0.05420
C1778       C  0.81364117  0.42892685  0.76198294    -0.32850
C1779       C  0.82977638  0.45988726  0.76473216     0.36400
C1780       C  0.85270995  0.47034843  0.74026986    -0.05780
C1781       C  0.85845363  0.44776949  0.71373911    -0.32750
C1782       C  0.84195947  0.41760926  0.71087286     0.36300
H1783       H  0.79687425  0.42111902  0.78129547     0.16670
O1784       O  0.82387835  0.47910198  0.79212001    -0.60250
H1785       H  0.87742896  0.45172951  0.69557713     0.16690
O1786       O  0.84948181  0.39677432  0.68516771    -0.60340
H1787       H  0.83379067  0.40283992  0.66654462     0.43680
H1788       H  0.83479765  0.46747005  0.81140412     0.43640
C1789       C  0.59621651  0.23528780  0.67786404    -0.05420
C1790       C  0.56883803  0.21491560  0.68523698    -0.32850
C1791       C  0.53675474  0.22123935  0.67109314     0.36400
C1792       C  0.53121684  0.24864880  0.64915315    -0.05780
C1793       C  0.55933177  0.26899794  0.64295867    -0.32750
C1794       C  0.59067687  0.26287175  0.65692703     0.36300
H1795       H  0.57241766  0.19343925  0.70129173     0.16670
O1796       O  0.51162083  0.19906769  0.67682676    -0.60250
H1797       H  0.55871923  0.28913103  0.62512141     0.16690
O1798       O  0.61587905  0.28450819  0.64958232    -0.60340
H1799       H  0.62366050  0.27772554  0.62729231     0.43680
H1800       H  0.50721315  0.20056860  0.70107565     0.43640
C1801       C  0.73157423  0.32486339  0.59828448    -0.05420
C1802       C  0.73517813  0.35904254  0.59560788    -0.32850
C1803       C  0.74027116  0.37422416  0.56483569     0.36400
C1804       C  0.74338020  0.35521293  0.53506245    -0.05780
C1805       C  0.73944408  0.32060756  0.53782031    -0.32750
C1806       C  0.73347819  0.30550014  0.56905012     0.36300
H1807       H  0.73380207  0.37442620  0.61766159     0.16670
O1808       O  0.74373158  0.40804612  0.56428132    -0.60250
H1809       H  0.74008920  0.30519695  0.51585055     0.16690
O1810       O  0.73005249  0.27177640  0.57074205    -0.60340
H1811       H  0.75289386  0.26322683  0.57498372     0.43680
H1812       H  0.72149136  0.41700154  0.56937597     0.43640
C1813       C  0.90669968  0.26756115  0.82511139    -0.05420
C1814       C  0.91075089  0.23869843  0.84387930    -0.32850
C1815       C  0.94091948  0.23009138  0.85906266     0.36400
C1816       C  0.97053047  0.24940108  0.85389973    -0.05780
C1817       C  0.96656334  0.27749628  0.83263848    -0.32750
C1818       C  0.93518663  0.28678122  0.81869439     0.36300
H1819       H  0.88961124  0.22278910  0.84856308     0.16670
O1820       O  0.93936366  0.20350396  0.88040230    -0.60250
H1821       H  0.98763099  0.29354255  0.82840192     0.16690
O1822       O  0.93251329  0.31553402  0.80042691    -0.60340
H1823       H  0.93824704  0.30937676  0.77730365     0.43680
H1824       H  0.92993611  0.21215048  0.90130834     0.43640
C1825       C  0.77005357  0.17647919  0.90667118    -0.05420
C1826       C  0.79024013  0.18390320  0.93501849    -0.32850
C1827       C  0.78460997  0.16888960  0.96649858     0.36400
C1828       C  0.75772774  0.14643209  0.97066398    -0.05780
C1829       C  0.73855673  0.13886251  0.94129232    -0.32750
C1830       C  0.74352864  0.15419115  0.91064192     0.36300
H1831       H  0.81090998  0.20091819  0.93272670     0.16670
O1832       O  0.80576760  0.17618706  0.99293370    -0.60250
H1833       H  0.71960085  0.11993183  0.94078980     0.16690
O1834       O  0.72214521  0.14642125  0.88445274    -0.60340
H1835       H  0.70379741  0.16272130  0.88555550     0.43680
H1836       H  0.82698792  0.16497174  0.98801659     0.43640
C1837       C  0.58606538  0.99055242  0.85296670    -0.05420
C1838       C  0.62023695  0.98871078  0.84949946    -0.32850
C1839       C  0.63411442  0.98944693  0.81796531     0.36400
C1840       C  0.61426692  0.99502679  0.78825471    -0.05780
C1841       C  0.57930218  0.99466242  0.79225143    -0.32750
C1842       C  0.56536349  0.99261662  0.82416392     0.36300
H1843       H  0.63643236  0.98594398  0.87150047     0.16670
O1844       O  0.66761663  0.98412034  0.81654437    -0.60250
H1845       H  0.56200005  0.99339495  0.77153155     0.16690
O1846       O  0.53143606  0.99255088  0.82688481    -0.60340
H1847       H  0.52518767  0.01616392  0.82891742     0.43680
H1848       H  0.67039339  0.95975689  0.81786728     0.43640
C1849       C  0.61683737  0.00708213  0.71912541    -0.05420
C1850       C  0.58333275  0.01628733  0.71233876    -0.32850
C1851       C  0.57079584  0.01968586  0.67924709     0.36400
C1852       C  0.59194349  0.01524349  0.65222996    -0.05780
C1853       C  0.62560820  0.01007558  0.65853683    -0.32750
C1854       C  0.63825640  0.00774263  0.69114921     0.36300
H1855       H  0.56690221  0.02325229  0.73163399     0.16670
O1856       O  0.53783102  0.02710451  0.67363344    -0.60250
H1857       H  0.64250199  0.00839264  0.63791772     0.16690
O1858       O  0.67214342  0.00673102  0.69532257    -0.60340
H1859       H  0.67961713  0.03008929  0.69382310     0.43680
H1860       H  0.52634765  0.00539857  0.67216007     0.43640
C1861       C  0.68019817  0.09724937  0.77098849    -0.05420
C1862       C  0.70087044  0.06933427  0.77290173    -0.32850
C1863       C  0.68806250  0.03695111  0.76902252     0.36400
C1864       C  0.65347061  0.03198750  0.76148052    -0.05780
C1865       C  0.63318607  0.06075043  0.76218391    -0.32750
C1866       C  0.64596937  0.09253067  0.76593936     0.36300
H1867       H  0.72733305  0.07252815  0.77771281     0.16670
O1868       O  0.70964572  0.01127272  0.77452345    -0.60250
H1869       H  0.60643212  0.05867269  0.75947615     0.16690
O1870       O  0.62436380  0.11879407  0.76583082    -0.60340
H1871       H  0.61894386  0.12334713  0.74185787     0.43680
H1872       H  0.71937155  0.01419164  0.79743070     0.43640
C1873       C  0.82930749  0.59956001  0.75413368    -0.05420
C1874       C  0.86357806  0.59596699  0.75314446    -0.32850
C1875       C  0.87786080  0.56492742  0.75053051     0.36400
C1876       C  0.85771464  0.53580488  0.74777618    -0.05780
C1877       C  0.82283155  0.53987204  0.74752650    -0.32750
C1878       C  0.80868549  0.57145469  0.75134739     0.36300
H1879       H  0.87961533  0.61755261  0.75464044     0.16670
O1880       O  0.91196927  0.56317615  0.75101576    -0.60250
H1881       H  0.80634798  0.51896969  0.74412540     0.16690
O1882       O  0.77475230  0.57470565  0.75140969    -0.60340
H1883       H  0.76790716  0.57842710  0.72764021     0.43680
H1884       H  0.91934974  0.56837405  0.77429814     0.43640
C1885       C  0.75124257  0.82691379  0.59448574    -0.05420
C1886       C  0.72535279  0.82127661  0.57086511    -0.32850
C1887       C  0.72697717  0.83389182  0.53788520     0.36400
C1888       C  0.75430583  0.85391258  0.52836798    -0.05780
C1889       C  0.77990916  0.85893333  0.55332332    -0.32750
C1890       C  0.77900951  0.84493864  0.58503639     0.36300
H1891       H  0.70363094  0.80732301  0.57808069     0.16670
O1892       O  0.70034285  0.82908203  0.51623053    -0.60250
H1893       H  0.80050401  0.87562760  0.55011063     0.16690
O1894       O  0.80420187  0.85192625  0.60784213    -0.60340
H1895       H  0.82206052  0.83584502  0.60316635     0.43680
H1896       H  0.69917073  0.80487800  0.51241052     0.43640
C1897       C  0.59555037  0.75212649  0.82642281    -0.05420
C1898       C  0.57551239  0.72363129  0.82595013    -0.32850
C1899       C  0.54315806  0.72400903  0.83863634     0.36400
C1900       C  0.53050695  0.75309360  0.85365148    -0.05780
C1901       C  0.55174484  0.78139138  0.85363629    -0.32750
C1902       C  0.58289596  0.78131318  0.83943028     0.36300
H1903       H  0.58508142  0.70079366  0.81595590     0.16670
O1904       O  0.52515829  0.69508470  0.83869714    -0.60250
H1905       H  0.54607695  0.80401466  0.86624976     0.16690
O1906       O  0.60210654  0.80939799  0.84136121    -0.60340
H1907       H  0.59466411  0.82327184  0.82200090     0.43680
H1908       H  0.52192264  0.68877025  0.81487461     0.43640
C1909       C  0.64680645  0.96321271  0.74870192    -0.05420
C1910       C  0.67999900  0.95443894  0.74180602    -0.32850
C1911       C  0.68938720  0.92130876  0.73717850     0.36400
C1912       C  0.66563183  0.89590159  0.73893094    -0.05780
C1913       C  0.63256338  0.90405740  0.74343918    -0.32750
C1914       C  0.62289250  0.93692644  0.74658526     0.36300
H1915       H  0.69878987  0.97245636  0.73728067     0.16670
O1916       O  0.72194448  0.91406294  0.73097611    -0.60250
H1917       H  0.61378263  0.88477047  0.74369345     0.16690
O1918       O  0.58941034  0.94305039  0.74699825    -0.60340
H1919       H  0.58176403  0.94298905  0.72317089     0.43680
H1920       H  0.73270075  0.91051046  0.75335295     0.43640
C1921       C  0.74083561  0.66563303  0.89628828    -0.05420
C1922       C  0.74434821  0.63177001  0.90065296    -0.32850
C1923       C  0.74689116  0.61802045  0.93239133     0.36400
C1924       C  0.74728593  0.63842536  0.96154697    -0.05780
C1925       C  0.74426345  0.67295049  0.95686402    -0.32750
C1926       C  0.74055340  0.68650668  0.92439608     0.36300
H1927       H  0.74474308  0.61558653  0.87910378     0.16670
O1928       O  0.74871500  0.58414532  0.93479379    -0.60250
H1929       H  0.74512592  0.68951828  0.97798993     0.16690
O1930       O  0.73757048  0.72010007  0.92035143    -0.60340
H1931       H  0.76065875  0.72837846  0.91826544     0.43680
H1932       H  0.72625116  0.57578640  0.92831952     0.43640
C1933       C  0.89474719  0.74118075  0.66580843    -0.05420
C1934       C  0.89901636  0.74458613  0.63152165    -0.32850
C1935       C  0.93067343  0.74623501  0.61845893     0.36400
C1936       C  0.95970495  0.74484399  0.63991797    -0.05780
C1937       C  0.95514032  0.74055355  0.67462513    -0.32750
C1938       C  0.92290820  0.73865052  0.68750831     0.36300
H1939       H  0.87751997  0.74606151  0.61458077     0.16670
O1940       O  0.93334348  0.74835506  0.58426892    -0.60250
H1941       H  0.97625036  0.73946867  0.69195299     0.16690
O1942       O  0.91918430  0.73541021  0.72139662    -0.60340
H1943       H  0.91813902  0.75837415  0.72990922     0.43680
H1944       H  0.92496856  0.77064358  0.57783135     0.43640
loop_ 
_geom_bond_atom_site_label_1 
_geom_bond_atom_site_label_2 
_geom_bond_distance 
_geom_bond_site_symmetry_2 
_ccdc_geom_bond_type 
O1           Mg3   2.116       .  S
O1           Mg9   2.139       .  S
O1           C36   1.239       .  S
C2           O15   1.238       .  S
C2           O39   1.272       .  A
C2           H41   1.081       .  S
Mg3          O32   2.129       .  S
Mg3          O47   2.313       .  S
Mg3          O43   2.249       .  S
Mg3          O14   2.302       .  S
O4          Mg46   2.122       .  S
O4          Mg29   2.119       .  S
O4           C25   1.238       .  S
O5           C36   1.273       .  A
O5          Mg29   2.303       .  S
C6            O8   1.271       .  A
C6           O20   1.275       .  A
C6         C1885   1.471       .  S
O7           C35   1.271       .  A
O7           Mg9   2.294       .  S
O8          Mg40   2.255       .  S
Mg9          O15   2.125       .  S
Mg9          O23   2.245       .  S
Mg9          O11   2.310       .  S
C10          O48   1.273       .  A
C10          O16   1.273       .  A
C10        C1933   1.472       .  S
O11          C18   1.272       .  A
H12          C25   1.081       .  S
C13          O27   1.239       .  S
C13          O28   1.273       .  A
C13          H38   1.081       .  S
O14          C37   1.272       .  A
O15         Mg29   2.121       .  S
O16         Mg46   2.317       .  S
C17          O30   1.269       .  A
C17          O22   1.275       .  A
C17        C1873   1.465       .  S
C18          O45   1.270       .  A
C18        C1921   1.461       .  S
Mg19         O26   2.122       .  S
Mg19         O27   2.130       .  S
Mg19         O20   2.297       .  S
Mg19         O21   2.300       .  S
Mg19         O48   2.260       .  S
O21          C25   1.271       .  A
O22         Mg29   2.330       .  S
O23          C42   1.270       .  A
O24          C44   1.276       .  A
O24         Mg40   2.326       .  S
O26         Mg40   2.143       .  S
O26          C37   1.238       .  S
O27         Mg46   2.120       .  S
O28         Mg40   2.298       .  S
Mg29         O45   2.226       .  S
O30         Mg46   2.225       .  S
H31          C36   1.081       .  S
O32         Mg40   2.124       .  S
O32          C35   1.238       .  S
H33          C35   1.081       .  S
H34          C37   1.081       .  S
O39         Mg46   2.302       .  S
C42          O47   1.277       .  A
C42        C1897   1.476       .  S
O43          C44   1.272       .  A
C44        C1912   1.471       .  S
C49        C1840   1.577       .  S
C49        C1849   1.572   1_565  S
C49        C1864   1.577   1_565  S
C49        C1909   1.574       .  S
O50         Mg52   2.127       .  S
O50         Mg58   2.150       .  S
O50          C85   1.239       .  S
C51          O64   1.240       .  S
C51          O88   1.273       .  A
C51          H90   1.081       .  S
Mg52         O81   2.153       .  S
Mg52         O96   2.299       .  S
Mg52         O92   2.307       .  S
Mg52         O63   2.303       .  S
O53         Mg95   2.150       .  S
O53         Mg78   2.124       .  S
O53          C74   1.238       .  S
O54          C85   1.272       .  A
O54         Mg78   2.300       .  S
C55          O57   1.274       .  A
C55          O69   1.276       .  A
C55        C1861   1.483       .  S
O56          C84   1.272       .  A
O56         Mg58   2.303       .  S
O57         Mg89   2.278       .  S
Mg58         O64   2.132       .  S
Mg58         O72   2.284       .  S
Mg58         O60   2.314       .  S
C59          O97   1.274       .  A
C59          O65   1.278       .  A
C59        C1789   1.493       .  S
O60          C67   1.276       .  A
H61          C74   1.081       .  S
C62          O76   1.237       .  S
C62          O77   1.269       .  A
C62          H87   1.081       .  S
O63          C86   1.273       .  A
O64         Mg78   2.140       .  S
O65         Mg95   2.299       .  S
C66          O79   1.273       .  A
C66          O71   1.278       .  A
C66        C1801   1.483       .  S
C67          O94   1.273       .  A
C67        C1777   1.471       .  S
Mg68         O75   2.134       .  S
Mg68         O76   2.151       .  S
Mg68         O69   2.297       .  S
Mg68         O70   2.294       .  S
Mg68         O97   2.295       .  S
O70          C74   1.271       .  A
O71         Mg78   2.308       .  S
O72          C91   1.272       .  A
O73          C93   1.275       .  A
O73         Mg89   2.283       .  S
O75         Mg89   2.156       .  S
O75          C86   1.239       .  S
O76         Mg95   2.110       .  S
O77         Mg89   2.286       .  S
Mg78         O94   2.273       .  S
O79         Mg95   2.274       .  S
H80          C85   1.081       .  S
O81         Mg89   2.130       .  S
O81          C84   1.238       .  S
H82          C84   1.081       .  S
H83          C86   1.081       .  S
O88         Mg95   2.299       .  S
C91          O96   1.279       .  A
C91        C1813   1.491       .  S
O92          C93   1.275       .  A
C93        C1825   1.495       .  S
C98        C1753   1.563       .  S
C98        C1765   1.571       .  S
C98        C1780   1.574       .  S
C98        C1876   1.561       .  S
C99        C1717   1.554       .  S
C99        C1729   1.576       .  S
C99        C1741   1.559       .  S
C99        C1888   1.573       .  S
O100       Mg102   2.125       .  S
O100       Mg108   2.126       .  S
O100        C135   1.238       .  S
C101        O114   1.240       .  S
C101        O138   1.275       .  A
C101        H140   1.081       .  S
Mg102       O131   2.140       .  S
Mg102       O146   2.327       .  S
Mg102       O142   2.258       .  S
Mg102       O113   2.296       .  S
O103       Mg145   2.117       .  S
O103       Mg128   2.128       .  S
O103        C124   1.239       .  S
O104        C135   1.271       .  A
O104       Mg128   2.298       .  S
C105        O107   1.270       .  A
C105        O119   1.275       .  A
C105       C1708   1.468       .  S
O106        C134   1.271       .  A
O106       Mg108   2.298       .  S
O107       Mg139   2.237       .  S
Mg108       O114   2.138       .  S
Mg108       O122   2.239       .  S
Mg108       O110   2.342       .  S
C109        O147   1.270       .  A
C109        O115   1.276       .  A
C109       C1669   1.470       .  S
O110        C117   1.276       .  A
H111        C124   1.081       .  S
C112        O126   1.238       .  S
C112        O127   1.271       .  A
C112        H137   1.081       .  S
O113        C136   1.272       .  A
O114       Mg128   2.121       .  S
O115       Mg145   2.334       .  S
C116        O129   1.270       .  A
C116        O121   1.273       .  A
C116       C1744   1.467       .  S
C117        O144   1.271       .  A
C117       C1681   1.484       .  S
Mg118       O125   2.124       .  S
Mg118       O126   2.125       .  S
Mg118       O119   2.327       .  S
Mg118       O120   2.306       .  S
Mg118       O147   2.245       .  S
O120        C124   1.273       .  A
O121       Mg128   2.325       .  S
O122        C141   1.272       .  A
O123        C143   1.275       .  A
O123       Mg139   2.300       .  S
O125       Mg139   2.131       .  S
O125        C136   1.239       .  S
O126       Mg145   2.111       .  S
O127       Mg139   2.297       .  S
Mg128       O144   2.219       .  S
O129       Mg145   2.229       .  S
H130        C135   1.081       .  S
O131       Mg139   2.116       .  S
O131        C134   1.238       .  S
H132        C134   1.081       .  S
H133        C136   1.081       .  S
O138       Mg145   2.314       .  S
C141        O146   1.276       .  A
C141       C1696   1.470       .  S
O142        C143   1.271       .  A
C143       C1657   1.475       .  S
C148       C1633   1.557       .  S
C148       C1648   1.572   1_556  S
C148       C1660   1.571   1_556  S
C148       C1924   1.556       .  S
C149       C1597   1.603       .  S
C149       C1609   1.578       .  S
C149       C1621   1.553       .  S
C149       C1684   1.594       .  S
C150       C1549   1.571       .  S
C150       C1561   1.581   1_565  S
C150       C1573   1.581       .  S
C150       C1588   1.584   1_565  S
C151       C1516   1.557       .  S
C151       C1528   1.570       .  S
C151       C1537   1.573       .  S
C151       C1828   1.575   1_554  S
C152       C1465   1.579       .  S
C152       C1480   1.552       .  S
C152       C1489   1.588       .  S
C152       C1501   1.574       .  S
C153       C1429   1.572       .  S
C153       C1441   1.564       .  S
C153       C1453   1.571       .  S
C153       C1804   1.563       .  S
C154       C1396   1.579       .  S
C154       C1408   1.577       .  S
C154       C1417   1.586       .  S
C154       C1693   1.580       .  S
C155       C1345   1.579       .  S
C155       C1360   1.581       .  S
C155       C1372   1.576       .  S
C155       C1381   1.588       .  S
C156       C1312   1.578   1_655  S
C156       C1321   1.565       .  S
C156       C1336   1.576       .  S
C156       C1705   1.555       .  S
O157       Mg159   2.128       .  S
O157       Mg165   2.139       .  S
O157        C192   1.239       .  S
C158        O171   1.239       .  S
C158        O195   1.272       .  A
C158        H197   1.081       .  S
Mg159       O188   2.133       .  S
Mg159       O203   2.317       .  S
Mg159       O199   2.269       .  S
Mg159       O170   2.298       .  S
O160       Mg202   2.142       .  S
O160       Mg185   2.120       .  S
O160        C181   1.238       .  S
O161        C192   1.272       .  A
O161       Mg185   2.295       .  S
C162        O164   1.270       .  A
C162        O176   1.277       .  A
C162       C1297   1.473       .  S
O163        C191   1.271       .  A
O163       Mg165   2.296       .  S
O164       Mg196   2.248       .  S
Mg165       O171   2.127       .  S
Mg165       O179   2.269       .  S
Mg165       O167   2.331       .  S
C166        O204   1.273       .  A
C166        O172   1.276       .  A
C166       C1309   1.472       .  S
O167        C174   1.280       .  A
H168        C181   1.081       .  S
C169        O183   1.239       .  S
C169        O184   1.272       .  A
C169        H194   1.081       .  S
O170        C193   1.272       .  A
O171       Mg185   2.145       .  S
O172       Mg202   2.320       .  S
C173        O186   1.270       .  A
C173        O178   1.275       .  A
C173       C1276   1.471       .  S
C174        O201   1.271       .  A
C174       C1285   1.485       .  S
Mg175       O182   2.124       .  S
Mg175       O183   2.136       .  S
Mg175       O176   2.301       .  S
Mg175       O177   2.296       .  S
Mg175       O204   2.272       .  S
O177        C181   1.271       .  A
O178       Mg185   2.295       .  S
O179        C198   1.275       .  A
O180        C200   1.276       .  A
O180       Mg196   2.305       .  S
O182       Mg196   2.151       .  S
O182        C193   1.239       .  S
O183       Mg202   2.115       .  S
O184       Mg196   2.294       .  S
Mg185       O201   2.252       .  S
O186       Mg202   2.250       .  S
H187        C192   1.081       .  S
O188       Mg196   2.111       .  S
O188        C191   1.238       .  S
H189        C191   1.081       .  S
H190        C193   1.081       .  S
O195       Mg202   2.298       .  S
C198        O203   1.276       .  A
C198       C1600   1.470       .  S
O199        C200   1.273       .  A
C200       C1384   1.485       .  S
C205       C1237   1.576   1_554  S
C205       C1252   1.570       .  S
C205       C1261   1.561   1_554  S
C205       C1273   1.562       .  S
C206       C1204   1.561       .  S
C206       C1213   1.573       .  S
C206       C1225   1.563       .  S
C206       C1792   1.577       .  S
O207       Mg209   2.122       .  S
O207       Mg215   2.154       .  S
O207        C242   1.237       .  S
C208        O221   1.238       .  S
C208        O245   1.270       .  A
C208        H247   1.081       .  S
Mg209       O238   2.148       .  S
Mg209       O253   2.286       .  S
Mg209       O249   2.269       .  S
Mg209       O220   2.290       .  S
O210       Mg252   2.153       .  S
O210       Mg235   2.120       .  S
O210        C231   1.238       .  S
O211        C242   1.270       .  A
O211       Mg235   2.290       .  S
C212        O214   1.272       .  A
C212        O226   1.280       .  A
C212       C1165   1.477       .  S
O213        C241   1.271       .  A
O213       Mg215   2.296       .  S
O214       Mg246   2.259       .  S
Mg215       O221   2.101       .  S
Mg215       O229   2.244       .  S
Mg215       O217   2.305       .  S
C216        O254   1.274       .  A
C216        O222   1.275       .  A
C216       C1177   1.469       .  S
O217        C224   1.277       .  A
H218        C231   1.081       .  S
C219        O233   1.237       .  S
C219        O234   1.270       .  A
C219        H244   1.081       .  S
O220        C243   1.270       .  A
O221       Mg235   2.147       .  S
O222       Mg252   2.286       .  S
C223        O236   1.273       .  A
C223        O228   1.273       .  A
C223       C1477   1.476       .  S
C224        O251   1.272       .  A
C224       C1228   1.480       .  S
Mg225       O232   2.117       .  S
Mg225       O233   2.153       .  S
Mg225       O226   2.317       .  S
Mg225       O227   2.291       .  S
Mg225       O254   2.276       .  S
O227        C231   1.270       .  A
O228       Mg235   2.273       .  S
O229        C248   1.270       .  A
O230        C250   1.275       .  A
O230       Mg246   2.296       .  S
O232       Mg246   2.152       .  S
O232        C243   1.238       .  S
O233       Mg252   2.121       .  S
O234       Mg246   2.289       .  S
Mg235       O251   2.273       .  S
O236       Mg252   2.269       .  S
H237        C242   1.081       .  S
O238       Mg246   2.123       .  S
O238        C241   1.238       .  S
H239        C241   1.081       .  S
H240        C243   1.081       .  S
O245       Mg252   2.287       .  S
C248        O253   1.275       .  A
C248       C1189   1.466       .  S
O249        C250   1.273       .  A
C250       C1564   1.481       .  S
C255       C1141   1.577       .  S
C255       C1156   1.562       .  S
C255       C1168   1.556       .  S
C255       C1816   1.580   1_455  S
O256       Mg258   2.127       .  S
O256       Mg264   2.149       .  S
O256        C291   1.240       .  S
C257        O270   1.238       .  S
C257        O294   1.271       .  A
C257        H296   1.081       .  S
Mg258       O287   2.159       .  S
Mg258       O302   2.320       .  S
Mg258       O298   2.280       .  S
Mg258       O269   2.301       .  S
O259       Mg301   2.147       .  S
O259       Mg284   2.114       .  S
O259        C280   1.238       .  S
O260        C291   1.273       .  A
O260       Mg284   2.298       .  S
C261        O263   1.276       .  A
C261        O275   1.276       .  A
C261       C1432   1.499       .  S
O262        C290   1.271       .  A
O262       Mg264   2.294       .  S
O263       Mg295   2.310       .  S
Mg264       O270   2.122       .  S
Mg264       O278   2.267       .  S
Mg264       O266   2.300       .  S
C265        O303   1.275       .  A
C265        O271   1.277       .  A
C265       C1420   1.484       .  S
O266        C273   1.276       .  A
H267        C280   1.081       .  S
C268        O282   1.239       .  S
C268        O283   1.272       .  A
C268        H293   1.081       .  S
O269        C292   1.272       .  A
O270       Mg284   2.147       .  S
O271       Mg301   2.301       .  S
C272        O285   1.275       .  A
C272        O277   1.277       .  A
C272       C1129   1.493       .  S
C273        O300   1.272       .  A
C273       C1513   1.478       .  S
Mg274       O281   2.128       .  S
Mg274       O282   2.152       .  S
Mg274       O275   2.295       .  S
Mg274       O276   2.289       .  S
Mg274       O303   2.281       .  S
O276        C280   1.270       .  A
O277       Mg284   2.302       .  S
O278        C297   1.272       .  A
O279        C299   1.277       .  A
O279       Mg295   2.290       .  S
O281       Mg295   2.151       .  S
O281        C292   1.238       .  S
O282       Mg301   2.128       .  S
O283       Mg295   2.298       .  S
Mg284       O300   2.265       .  S
O285       Mg301   2.285       .  S
H286        C291   1.081       .  S
O287       Mg295   2.132       .  S
O287        C290   1.238       .  S
H288        C290   1.081       .  S
H289        C292   1.081       .  S
O294       Mg301   2.294       .  S
C297        O302   1.277       .  A
C297       C1105   1.473       .  S
O298        C299   1.273       .  A
C299       C1120   1.491       .  S
C304       C1084   1.560       .  S
C304       C1093   1.568   1_565  S
C304       C1108   1.568   1_565  S
C304       C1672   1.567       .  S
C305       C1048   1.562       .  S
C305       C1060   1.567       .  S
C305       C1072   1.549       .  S
C305       C1117   1.574   1_455  S
O306       Mg308   2.143       .  S
O306       Mg314   2.124       .  S
O306        C341   1.239       .  S
C307        O320   1.239       .  S
C307        O344   1.273       .  A
C307        H346   1.081       .  S
Mg308       O337   2.124       .  S
Mg308       O352   2.341       .  S
Mg308       O348   2.249       .  S
Mg308       O319   2.300       .  S
O309       Mg351   2.143       .  S
O309       Mg334   2.117       .  S
O309        C330   1.238       .  S
O310        C341   1.274       .  A
O310       Mg334   2.311       .  S
C311        O313   1.272       .  A
C311        O325   1.272       .  A
C311       C1069   1.463       .  S
O312        C340   1.274       .  A
O312       Mg314   2.318       .  S
O313       Mg345   2.249       .  S
Mg314       O320   2.144       .  S
Mg314       O328   2.263       .  S
Mg314       O316   2.354       .  S
C315        O353   1.269       .  A
C315        O321   1.279       .  A
C315        C985   1.473       .  S
O316        C323   1.278       .  A
H317        C330   1.081       .  S
C318        O332   1.239       .  S
C318        O333   1.271       .  A
C318        H343   1.081       .  S
O319        C342   1.271       .  A
O320       Mg334   2.133       .  S
O321       Mg351   2.329       .  S
C322        O335   1.271       .  A
C322        O327   1.276       .  A
C322       C1036   1.470       .  S
C323        O350   1.270       .  A
C323       C1012   1.479       .  S
Mg324       O331   2.122       .  S
Mg324       O332   2.142       .  S
Mg324       O325   2.304       .  S
Mg324       O326   2.286       .  S
Mg324       O353   2.240       .  S
O326        C330   1.270       .  A
O327       Mg334   2.322       .  S
O328        C347   1.273       .  A
O329        C349   1.275       .  A
O329       Mg345   2.330       .  S
O331       Mg345   2.130       .  S
O331        C342   1.237       .  S
O332       Mg351   2.112       .  S
O333       Mg345   2.291       .  S
Mg334       O350   2.234       .  S
O335       Mg351   2.252       .  S
H336        C341   1.081       .  S
O337       Mg345   2.152       .  S
O337        C340   1.239       .  S
H338        C340   1.081       .  S
H339        C342   1.081       .  S
O344       Mg351   2.306       .  S
C347        O352   1.278       .  A
C347       C1021   1.480       .  S
O348        C349   1.275       .  A
C349        C997   1.488       .  S
C354        C961   1.567   1_556  S
C354        C973   1.568       .  S
C354       C1033   1.568   1_556  S
C354       C1180   1.560       .  S
C355        C937   1.580       .  S
C355        C952   1.578   1_545  S
C355       C1024   1.579       .  S
C355       C1288   1.575   1_545  S
O356       Mg358   2.115       .  S
O356       Mg364   2.139   1_655  S
O356        C391   1.239       .  S
C357        O370   1.239       .  S
C357        O394   1.272   1_565  A
C357        H396   1.081       .  S
Mg358       O387   2.134       .  S
Mg358       O402   2.316       .  S
Mg358       O398   2.239       .  S
Mg358       O369   2.298   1_565  S
O359       Mg401   2.149       .  S
O359       Mg384   2.124       .  S
O359        C380   1.239       .  S
O360        C391   1.272   1_445  A
O360       Mg384   2.303       .  S
C361        O363   1.271   1_545  A
C361        O375   1.275       .  A
C361       C1096   1.483       .  S
O362        C390   1.272   1_455  A
O362       Mg364   2.297       .  S
O363       Mg395   2.234       .  S
Mg364       O370   2.134       .  S
Mg364       O378   2.268       .  S
Mg364       O366   2.324       .  S
C365        O403   1.269   1_455  A
C365        O371   1.277       .  A
C365       C1057   1.465       .  S
O366        C373   1.276       .  A
H367        C380   1.081       .  S
C368        O382   1.238       .  S
C368        O383   1.270   1_445  A
C368        H393   1.081       .  S
O369        C392   1.271       .  A
O370       Mg384   2.131   1_565  S
O371       Mg401   2.314       .  S
C372        O385   1.271       .  A
C372        O377   1.279       .  A
C372        C925   1.477       .  S
C373        O400   1.273   1_565  A
C373       C1576   1.472       .  S
Mg374       O381   2.115       .  S
Mg374       O382   2.141   1_655  S
Mg374       O375   2.332       .  S
Mg374       O376   2.294       .  S
Mg374       O403   2.227       .  S
O376        C380   1.272   1_655  A
O377       Mg384   2.320       .  S
O378        C397   1.273   1_455  A
O379        C399   1.272       .  A
O379       Mg395   2.304       .  S
O381       Mg395   2.119   1_545  S
O381        C392   1.238       .  S
O382       Mg401   2.108       .  S
O383       Mg395   2.288       .  S
Mg384       O400   2.262       .  S
O385       Mg401   2.254       .  S
H386        C391   1.081       .  S
O387       Mg395   2.130       .  S
O387        C390   1.239       .  S
H388        C390   1.081       .  S
H389        C392   1.081       .  S
O394       Mg401   2.300       .  S
C397        O402   1.276       .  A
C397        C913   1.474       .  S
O398        C399   1.271       .  A
C399       C1720   1.460       .  S
O404       Mg406   2.130   1_554  S
O404       Mg412   2.139   1_545  S
O404        C439   1.239       .  S
C405        O418   1.238       .  S
C405        O442   1.271   1_554  A
C405        H444   1.081       .  S
Mg406       O435   2.150       .  S
Mg406       O450   2.324       .  S
Mg406       O446   2.275       .  S
Mg406       O417   2.293   1_655  S
O407       Mg449   2.151   1_554  S
O407       Mg432   2.124       .  S
O407        C428   1.238       .  S
O408        C439   1.272   1_455  A
O408       Mg432   2.298   1_545  S
C409        O411   1.273       .  A
C409        O423   1.278       .  A
C409       C1585   1.489       .  S
O410        C438   1.271   1_565  A
O410       Mg412   2.296   1_556  S
O411       Mg443   2.280   1_455  S
Mg412       O418   2.127       .  S
Mg412       O426   2.278   1_565  S
Mg412       O414   2.313       .  S
C413        O451   1.271       .  A
C413        O419   1.274       .  A
C413       C1264   1.473       .  S
O414        C421   1.279       .  A
H415        C428   1.081       .  S
C416        O430   1.238       .  S
C416        O431   1.271       .  A
C416        H441   1.081       .  S
O417        C440   1.271       .  A
O418       Mg432   2.152   1_655  S
O419       Mg449   2.273       .  S
C420        O433   1.272       .  A
C420        O425   1.280       .  A
C420       C1333   1.492       .  S
C421        O448   1.275       .  A
C421       C1081   1.490       .  S
Mg422       O429   2.111       .  S
Mg422       O430   2.157   1_545  S
Mg422       O423   2.312       .  S
Mg422       O424   2.297   1_546  S
Mg422       O451   2.258   1_545  S
O424        C428   1.271       .  A
O425       Mg432   2.309       .  S
O426        C445   1.275       .  A
O427        C447   1.273       .  A
O427       Mg443   2.274       .  S
O429       Mg443   2.146   1_455  S
O429        C440   1.239       .  S
O430       Mg449   2.126       .  S
O431       Mg443   2.291   1_465  S
Mg432       O448   2.290   1_455  S
O433       Mg449   2.284   1_554  S
H434        C439   1.081       .  S
O435       Mg443   2.127       .  S
O435        C438   1.238       .  S
H436        C438   1.081       .  S
H437        C440   1.081       .  S
O442       Mg449   2.297   1_655  S
C445        O450   1.277   1_554  A
C445       C1540   1.473       .  S
O446        C447   1.273       .  A
C447       C1153   1.478       .  S
O452       Mg454   2.120       .  S
O452       Mg460   2.128   1_545  S
O452        C487   1.237       .  S
C453        O466   1.240       .  S
C453        O490   1.275       .  A
C453        H492   1.081       .  S
Mg454       O483   2.135       .  S
Mg454       O498   2.316       .  S
Mg454       O494   2.255       .  S
Mg454       O465   2.298       .  S
O455       Mg497   2.120       .  S
O455       Mg480   2.127       .  S
O455        C476   1.238       .  S
O456        C487   1.270   1_565  A
O456       Mg480   2.295       .  S
C457        O459   1.270       .  A
C457        O471   1.275       .  A
C457        C904   1.472       .  S
O458        C486   1.271   1_565  A
O458       Mg460   2.298       .  S
O459       Mg491   2.219       .  S
Mg460       O466   2.143       .  S
Mg460       O474   2.238       .  S
Mg460       O462   2.350       .  S
C461        O499   1.272   1_565  A
C461        O467   1.276       .  A
C461        C949   1.476       .  S
O462        C469   1.276       .  A
H463        C476   1.081       .  S
C464        O478   1.238       .  S
C464        O479   1.271   1_565  A
C464        H489   1.081       .  S
O465        C488   1.273       .  A
O466       Mg480   2.117       .  S
O467       Mg497   2.336       .  S
C468        O481   1.268       .  A
C468        O473   1.272       .  A
C468       C1624   1.460       .  S
C469        O496   1.269       .  A
C469       C1732   1.495       .  S
Mg470       O477   2.137       .  S
Mg470       O478   2.123   1_545  S
Mg470       O471   2.324       .  S
Mg470       O472   2.307       .  S
Mg470       O499   2.256       .  S
O472        C476   1.272   1_545  A
O473       Mg480   2.311       .  S
O474        C493   1.272   1_565  A
O475        C495   1.276       .  A
O475       Mg491   2.315       .  S
O477       Mg491   2.137       .  S
O477        C488   1.239       .  S
O478       Mg497   2.113       .  S
O479       Mg491   2.297       .  S
Mg480       O496   2.217       .  S
O481       Mg497   2.231       .  S
H482        C487   1.081       .  S
O483       Mg491   2.110       .  S
O483        C486   1.238       .  S
H484        C486   1.081       .  S
H485        C488   1.081       .  S
O490       Mg497   2.316       .  S
C493        O498   1.275       .  A
C493       C1852   1.466       .  S
O494        C495   1.271       .  A
C495       C1216   1.478       .  S
C500        C901   1.579       .  S
C500        C928   1.591       .  S
C500       C1000   1.582       .  S
C500       C1192   1.561       .  S
O501       Mg503   2.123       .  S
O501       Mg509   2.146   1_554  S
O501        C536   1.238       .  S
C502        O515   1.238       .  S
C502        O539   1.272   1_565  A
C502        H541   1.081       .  S
Mg503       O532   2.129   1_565  S
Mg503       O547   2.307       .  S
Mg503       O543   2.262       .  S
Mg503       O514   2.306       .  S
O504       Mg546   2.129   1_565  S
O504       Mg529   2.137       .  S
O504        C525   1.239   1_556  S
O505        C536   1.272   1_556  A
O505       Mg529   2.298       .  S
C506        O508   1.270       .  A
C506        O520   1.278       .  A
C506        C889   1.485       .  S
O507        C535   1.271   1_566  A
O507       Mg509   2.292       .  S
O508       Mg540   2.222       .  S
Mg509       O515   2.125       .  S
Mg509       O523   2.246       .  S
Mg509       O511   2.313       .  S
C510        O548   1.272   1_556  A
C510        O516   1.274       .  A
C510       C1525   1.470       .  S
O511        C518   1.274       .  A
H512        C525   1.081       .  S
C513        O527   1.239       .  S
C513        O528   1.273   1_556  A
C513        H538   1.081       .  S
O514        C537   1.273   1_565  A
O515       Mg529   2.129       .  S
O516       Mg546   2.322       .  S
C517        O530   1.271   1_565  A
C517        O522   1.276       .  A
C517       C1837   1.470       .  S
C518        O545   1.272       .  A
C518        C877   1.466       .  S
Mg519       O526   2.138       .  S
Mg519       O527   2.129   1_554  S
Mg519       O520   2.351       .  S
Mg519       O521   2.311       .  S
Mg519       O548   2.252       .  S
O521        C525   1.274   1_545  A
O522       Mg529   2.329       .  S
O523        C542   1.270   1_556  A
O524        C544   1.277       .  A
O524       Mg540   2.337       .  S
O526       Mg540   2.123       .  S
O526        C537   1.238       .  S
O527       Mg546   2.137       .  S
O528       Mg540   2.308       .  S
Mg529       O545   2.255       .  S
O530       Mg546   2.249       .  S
H531        C536   1.081       .  S
O532       Mg540   2.118       .  S
O532        C535   1.238       .  S
H533        C535   1.081       .  S
H534        C537   1.081       .  S
O539       Mg546   2.300       .  S
C542        O547   1.276       .  A
C542       C1249   1.473       .  S
O543        C544   1.272   1_565  A
C544        C940   1.477       .  S
C549        C868   1.597       .  S
C549        C892   1.571       .  S
C549       C1009   1.589       .  S
C549       C1132   1.583       .  S
O550       Mg552   2.123       .  S
O550       Mg558   2.148       .  S
O550        C585   1.238       .  S
C551        O564   1.239       .  S
C551        O588   1.271       .  A
C551        H590   1.081       .  S
Mg552       O581   2.157       .  S
Mg552       O596   2.277       .  S
Mg552       O592   2.279       .  S
Mg552       O563   2.296   1_554  S
O553       Mg595   2.152       .  S
O553       Mg578   2.136       .  S
O553        C574   1.239       .  S
O554        C585   1.271   1_556  A
O554       Mg578   2.295       .  S
C555        O557   1.274       .  A
C555        O569   1.278       .  A
C555        C853   1.491       .  S
O556        C584   1.272       .  A
O556       Mg558   2.299       .  S
O557       Mg589   2.297   1_556  S
Mg558       O564   2.119       .  S
Mg558       O572   2.270       .  S
Mg558       O560   2.298       .  S
C559        O597   1.274       .  A
C559        O565   1.280       .  A
C559       C1492   1.494       .  S
O560        C567   1.276       .  A
H561        C574   1.081       .  S
C562        O576   1.238       .  S
C562        O577   1.272   1_556  A
C562        H587   1.081       .  S
O563        C586   1.271       .  A
O564       Mg578   2.149   1_554  S
O565       Mg595   2.298       .  S
C566        O579   1.277       .  A
C566        O571   1.279       .  A
C566        C976   1.495       .  S
C567        O594   1.277       .  A
C567        C865   1.498       .  S
Mg568       O575   2.123       .  S
Mg568       O576   2.156       .  S
Mg568       O569   2.300       .  S
Mg568       O570   2.302       .  S
Mg568       O597   2.303       .  S
O570        C574   1.273       .  A
O571       Mg578   2.312       .  S
O572        C591   1.272       .  A
O573        C593   1.275       .  A
O573       Mg589   2.283       .  S
O575       Mg589   2.154   1_556  S
O575        C586   1.238       .  S
O576       Mg595   2.134       .  S
O577       Mg589   2.300       .  S
Mg578       O594   2.307   1_556  S
O579       Mg595   2.303       .  S
H580        C585   1.081       .  S
O581       Mg589   2.127       .  S
O581        C584   1.239       .  S
H582        C584   1.081       .  S
H583        C586   1.081       .  S
O588       Mg595   2.294   1_554  S
C591        O596   1.273       .  A
C591       C1393   1.481       .  S
O592        C593   1.271       .  A
C593       C1645   1.485       .  S
O598       Mg600   2.131       .  S
O598       Mg606   2.152   1_655  S
O598        C633   1.237       .  S
C599        O612   1.238       .  S
C599        O636   1.270       .  A
C599        H638   1.081       .  S
Mg600       O629   2.145       .  S
Mg600       O644   2.306       .  S
Mg600       O640   2.281       .  S
Mg600       O611   2.292       .  S
O601       Mg643   2.159       .  S
O601       Mg626   2.144       .  S
O601        C622   1.239       .  S
O602        C633   1.270       .  A
O602       Mg626   2.295   1_655  S
C603        O605   1.273       .  A
C603        O617   1.273       .  A
C603       C1045   1.474       .  S
O604        C632   1.272   1_455  A
O604       Mg606   2.296       .  S
O605       Mg637   2.275       .  S
Mg606       O612   2.117       .  S
Mg606       O620   2.268   1_455  S
Mg606       O608   2.313       .  S
C607        O645   1.271       .  A
C607        O613   1.278       .  A
C607        C844   1.492       .  S
O608        C615   1.279       .  A
H609        C622   1.081       .  S
C610        O624   1.238       .  S
C610        O625   1.271       .  A
C610        H635   1.081       .  S
O611        C634   1.271       .  A
O612       Mg626   2.150       .  S
O613       Mg643   2.297       .  S
C614        O627   1.273       .  A
C614        O619   1.276       .  A
C614       C1369   1.480       .  S
C615        O642   1.276       .  A
C615        C829   1.497       .  S
Mg616       O623   2.122       .  S
Mg616       O624   2.150   1_655  S
Mg616       O617   2.274       .  S
Mg616       O618   2.302       .  S
Mg616       O645   2.285   1_655  S
O618        C622   1.272   1_655  A
O619       Mg626   2.286       .  S
O620        C639   1.273       .  A
O621        C641   1.277       .  A
O621       Mg637   2.321       .  S
O623       Mg637   2.154       .  S
O623        C634   1.238       .  S
O624       Mg643   2.120       .  S
O625       Mg637   2.296   1_455  S
Mg626       O642   2.312       .  S
O627       Mg643   2.268       .  S
H628        C633   1.081       .  S
O629       Mg637   2.126       .  S
O629        C632   1.239       .  S
H630        C632   1.081       .  S
H631        C634   1.081       .  S
O636       Mg643   2.293       .  S
C639        O644   1.278       .  A
C639       C1756   1.477       .  S
O640        C641   1.274       .  A
C641       C1456   1.475       .  S
O646       Mg648   2.103       .  S
O646       Mg654   2.151   1_554  S
O646        C681   1.238       .  S
C647        O660   1.238       .  S
C647        O684   1.271       .  A
C647        H686   1.081       .  S
Mg648       O677   2.153   1_655  S
Mg648       O692   2.300       .  S
Mg648       O688   2.247   1_655  S
Mg648       O659   2.296       .  S
O649       Mg691   2.142       .  S
O649       Mg674   2.111       .  S
O649        C670   1.238       .  S
O650        C681   1.270       .  A
O650       Mg674   2.287   1_554  S
C651        O653   1.273       .  A
C651        O665   1.279       .  A
C651        C964   1.495       .  S
O652        C680   1.270   1_556  A
O652       Mg654   2.289   1_455  S
O653       Mg685   2.281       .  S
Mg654       O660   2.122       .  S
Mg654       O668   2.281   1_556  S
Mg654       O656   2.284       .  S
C655        O693   1.275       .  A
C655        O661   1.273   1_455  A
C655       C1144   1.468       .  S
O656        C663   1.275       .  A
H657        C670   1.081       .  S
C658        O672   1.239       .  S
C658        O673   1.272       .  A
C658        H683   1.081       .  S
O659        C682   1.271   1_655  A
O660       Mg674   2.156       .  S
O661       Mg691   2.300       .  S
C662        O675   1.272       .  A
C662        O667   1.275       .  A
C662       C1768   1.489       .  S
C663        O690   1.272       .  A
C663       C1636   1.471       .  S
Mg664       O671   2.126       .  S
Mg664       O672   2.139   1_554  S
Mg664       O665   2.314       .  S
Mg664       O666   2.297   1_455  S
Mg664       O693   2.277   1_554  S
O666        C670   1.271   1_554  A
O667       Mg674   2.286       .  S
O668        C687   1.273       .  A
O669        C689   1.277       .  A
O669       Mg685   2.297       .  S
O671       Mg685   2.150       .  S
O671        C682   1.238       .  S
O672       Mg691   2.133   1_455  S
O673       Mg685   2.301   1_556  S
Mg674       O690   2.262       .  S
O675       Mg691   2.282       .  S
H676        C681   1.081       .  S
O677       Mg685   2.124       .  S
O677        C680   1.238       .  S
H678        C680   1.081       .  S
H679        C682   1.081       .  S
O684       Mg691   2.296       .  S
C687        O692   1.277       .  A
C687       C1324   1.480       .  S
O688        C689   1.270       .  A
C689        C820   1.471       .  S
C694        C817   1.561       .  S
C694        C841   1.574       .  S
C694        C988   1.577       .  S
C694       C1300   1.552       .  S
O695       Mg697   2.121       .  S
O695       Mg703   2.132       .  S
O695        C730   1.239       .  S
C696        O709   1.238       .  S
C696        O733   1.271       .  A
C696        H735   1.081       .  S
Mg697       O726   2.130       .  S
Mg697       O741   2.320       .  S
Mg697       O737   2.229       .  S
Mg697       O708   2.303       .  S
O698       Mg740   2.130       .  S
O698       Mg723   2.140       .  S
O698        C719   1.239       .  S
O699        C730   1.272       .  A
O699       Mg723   2.299       .  S
C700        O702   1.271       .  A
C700        O714   1.274       .  A
C700       C1444   1.471       .  S
O701        C729   1.272       .  A
O701       Mg703   2.297       .  S
O702       Mg734   2.250       .  S
Mg703       O709   2.131       .  S
Mg703       O717   2.259       .  S
Mg703       O705   2.314       .  S
C704        O742   1.268       .  A
C704        O710   1.277       .  A
C704       C1405   1.469       .  S
O705        C712   1.275       .  A
H706        C719   1.081       .  S
C707        O721   1.239       .  S
C707        O722   1.274       .  A
C707        H732   1.081       .  S
O708        C731   1.272       .  A
O709       Mg723   2.136       .  S
O710       Mg740   2.339       .  S
C711        O724   1.275       .  A
C711        O716   1.276       .  A
C711       C1612   1.486       .  S
C712        O739   1.271       .  A
C712       C1357   1.467       .  S
Mg713       O720   2.126       .  S
Mg713       O721   2.120       .  S
Mg713       O714   2.328       .  S
Mg713       O715   2.311       .  S
Mg713       O742   2.228       .  S
O715        C719   1.274       .  A
O716       Mg723   2.326       .  S
O717        C736   1.272       .  A
O718        C738   1.276       .  A
O718       Mg734   2.335       .  S
O720       Mg734   2.124       .  S
O720        C731   1.238       .  S
O721       Mg740   2.141       .  S
O722       Mg734   2.312       .  S
Mg723       O739   2.249       .  S
O724       Mg740   2.256       .  S
H725        C730   1.081       .  S
O726       Mg734   2.127       .  S
O726        C729   1.239       .  S
H727        C729   1.081       .  S
H728        C731   1.081       .  S
O733       Mg740   2.300       .  S
C736        O741   1.274       .  A
C736       C1504   1.470       .  S
O737        C738   1.269       .  A
C738       C1201   1.468       .  S
C743        C805   1.577   1_655  S
C743        C832   1.601   1_655  S
C743        C916   1.588       .  S
C743       C1936   1.557       .  S
O744       Mg746   2.132       .  S
O744       Mg752   2.134       .  S
O744        C779   1.239       .  S
C745        O758   1.238       .  S
C745        O782   1.271       .  A
C745        H784   1.081       .  S
Mg746       O775   2.139       .  S
Mg746       O790   2.338       .  S
Mg746       O786   2.281       .  S
Mg746       O757   2.303       .  S
O747       Mg789   2.148       .  S
O747       Mg772   2.110       .  S
O747        C768   1.238       .  S
O748        C779   1.272       .  A
O748       Mg772   2.298       .  S
C749        O751   1.272       .  A
C749        O763   1.275       .  A
C749       C1468   1.470       .  S
O750        C778   1.272       .  A
O750       Mg752   2.300       .  S
O751       Mg783   2.260       .  S
Mg752       O758   2.127       .  S
Mg752       O766   2.264       .  S
Mg752       O754   2.321       .  S
C753        O791   1.272       .  A
C753        O759   1.272       .  A
C753        C793   1.475       .  S
O754        C761   1.279       .  A
H755        C768   1.081       .  S
C756        O770   1.238       .  S
C756        O771   1.272       .  A
C756        H781   1.081       .  S
O757        C780   1.273       .  A
O758       Mg772   2.143       .  S
O759       Mg789   2.263       .  S
C760        O773   1.271       .  A
C760        O765   1.276       .  A
C760       C1240   1.486       .  S
C761        O788   1.271       .  A
C761       C1552   1.483       .  S
Mg762       O769   2.130       .  S
Mg762       O770   2.148       .  S
Mg762       O763   2.316       .  S
Mg762       O764   2.295       .  S
Mg762       O791   2.267       .  S
O764        C768   1.271       .  A
O765       Mg772   2.294       .  S
O766        C785   1.274       .  A
O767        C787   1.276       .  A
O767       Mg783   2.301       .  S
O769       Mg783   2.135       .  S
O769        C780   1.240       .  S
O770       Mg789   2.119       .  S
O771       Mg783   2.298       .  S
Mg772       O788   2.251       .  S
O773       Mg789   2.279       .  S
H774        C779   1.081       .  S
O775       Mg783   2.122       .  S
O775        C778   1.238       .  S
H776        C778   1.081       .  S
H777        C780   1.081       .  S
O782       Mg789   2.297       .  S
C785        O790   1.279       .  A
C785        C808   1.479       .  S
O786        C787   1.274       .  A
C787       C1348   1.485       .  S
C792        C796   1.559       .  S
C792        C856   1.583       .  S
C792        C880   1.562       .  S
C792       C1900   1.573       .  S
C793        C794   1.406       .  A
C793        C798   1.402       .  A
C794        H799   1.083       .  S
C794        C795   1.408       .  A
C795        C796   1.419       .  A
C795        O800   1.368       .  S
C796        C797   1.419       .  A
C797        H801   1.084       .  S
C797        C798   1.383       .  A
C798        O802   1.373       .  S
O800        H804   0.991       .  S
O802        H803   0.992       .  S
C805        C806   1.423       .  A
C805        C810   1.425       .  A
C806        H811   1.074       .  S
C806        C807   1.395       .  A
C807        C808   1.397       .  A
C807        O812   1.373       .  S
C808        C809   1.403       .  A
C809        H813   1.084       .  S
C809        C810   1.409       .  A
C810        O814   1.371       .  S
O812        H816   0.992       .  S
O814        H815   0.991       .  S
C817        C818   1.422       .  A
C817        C822   1.418       .  A
C818        H823   1.084       .  S
C818        C819   1.384       .  A
C819        C820   1.396       .  A
C819        O824   1.373       .  S
C820        C821   1.407       .  A
C821        H825   1.084       .  S
C821        C822   1.410       .  A
C822        O826   1.370       .  S
O824        H828   0.992       .  S
O826        H827   0.992       .  S
C829        C830   1.408       .  A
C829        C834   1.399   1_455  A
C830        H835   1.083       .  S
C830        C831   1.423       .  A
C831        C832   1.433       .  A
C831        O836   1.373       .  S
C832        C833   1.430   1_455  A
C833        H837   1.075       .  S
C833        C834   1.389       .  A
C834        O838   1.374       .  S
O836        H840   0.992       .  S
O838        H839   0.992       .  S
C841        C842   1.416       .  A
C841        C846   1.439       .  A
C842        H847   1.083       .  S
C842        C843   1.413       .  A
C843        C844   1.412       .  A
C843        O848   1.371       .  S
C844        C845   1.392       .  A
C845        H849   1.084       .  S
C845        C846   1.388       .  A
C846        O850   1.373       .  S
O848        H852   0.992       .  S
O850        H851   0.992       .  S
C853        C854   1.409       .  A
C853        C858   1.400       .  A
C854        H859   1.083       .  S
C854        C855   1.419       .  A
C855        C856   1.425       .  A
C855        O860   1.372       .  S
C856        C857   1.425       .  A
C857        H861   1.075       .  S
C857        C858   1.385       .  A
C858        O862   1.374       .  S
O860        H864   0.992       .  S
O862        H863   0.992       .  S
C865        C866   1.405       .  A
C865        C870   1.407       .  A
C866        H871   1.083       .  S
C866        C867   1.419       .  A
C867        C868   1.431       .  A
C867        O872   1.379       .  S
C868        C869   1.418       .  A
C869        H873   1.071       .  S
C869        C870   1.395       .  A
C870        O874   1.373       .  S
O872        H876   0.993       .  S
O874        H875   0.992       .  S
C877        C878   1.388       .  A
C877        C882   1.408       .  A
C878        H883   1.084       .  S
C878        C879   1.390       .  A
C879        C880   1.431       .  A
C879        O884   1.373       .  S
C880        C881   1.411       .  A
C881        H885   1.080       .  S
C881        C882   1.408       .  A
C882        O886   1.371       .  S
O884        H888   0.992       .  S
O886        H887   0.992       .  S
C889        C890   1.406       .  A
C889        C894   1.401       .  A
C890        H895   1.083       .  S
C890        C891   1.417       .  A
C891        C892   1.429       .  A
C891        O896   1.373       .  S
C892        C893   1.417       .  A
C893        H897   1.073       .  S
C893        C894   1.386       .  A
C894        O898   1.373       .  S
O896        H900   0.992       .  S
O898        H899   0.992       .  S
C901        C902   1.428       .  A
C901        C906   1.423       .  A
C902        H907   1.082       .  S
C902        C903   1.380       .  A
C903        C904   1.395       .  A
C903        O908   1.374       .  S
C904        C905   1.406       .  A
C905        H909   1.083       .  S
C905        C906   1.413       .  A
C906        O910   1.366       .  S
O908        H912   0.992       .  S
O910        H911   0.992       .  S
C913        C914   1.384       .  A
C913        C918   1.405   1_655  A
C914        H919   1.085       .  S
C914        C915   1.392       .  A
C915        C916   1.447       .  A
C915        O920   1.373       .  S
C916        C917   1.415   1_655  A
C917        H921   1.072       .  S
C917        C918   1.411       .  A
C918        O922   1.371       .  S
O920        H924   0.991       .  S
O922        H923   0.992       .  S
C925        C926   1.405       .  A
C925        C930   1.391       .  A
C926        H931   1.083       .  S
C926        C927   1.415       .  A
C927        C928   1.428       .  A
C927        O932   1.374       .  S
C928        C929   1.431       .  A
C929        H933   1.074       .  S
C929        C930   1.387       .  A
C930        O934   1.374       .  S
O932        H936   0.992       .  S
O934        H935   0.992       .  S
C937        C938   1.419       .  A
C937        C942   1.432       .  A
C938        H943   1.067       .  S
C938        C939   1.411       .  A
C939        C940   1.405       .  A
C939        O944   1.371       .  S
C940        C941   1.388       .  A
C941        H945   1.084       .  S
C941        C942   1.394       .  A
C942        O946   1.370       .  S
O944        H948   0.992   1_545  S
O946        H947   0.992       .  S
C949        C950   1.388       .  A
C949        C954   1.405       .  A
C950        H955   1.084       .  S
C950        C951   1.393       .  A
C951        C952   1.432       .  A
C951        O956   1.369       .  S
C952        C953   1.419       .  A
C953        H957   1.066       .  S
C953        C954   1.410       .  A
C954        O958   1.372       .  S
O956        H960   0.992       .  S
O958        H959   0.992   1_565  S
C961        C962   1.421   1_554  A
C961        C966   1.419       .  A
C962        H967   1.080       .  S
C962        C963   1.389   1_556  A
C963        C964   1.403       .  A
C963        O968   1.373   1_554  S
C964        C965   1.412       .  A
C965        H969   1.083       .  S
C965        C966   1.416       .  A
C966        O970   1.371       .  S
O968        H972   0.992       .  S
O970        H971   0.992       .  S
C973        C974   1.418       .  A
C973        C978   1.421       .  A
C974        H979   1.083       .  S
C974        C975   1.390       .  A
C975        C976   1.404       .  A
C975        O980   1.372       .  S
C976        C977   1.411       .  A
C977        H981   1.083       .  S
C977        C978   1.420       .  A
C978        O982   1.372       .  S
O980        H984   0.992       .  S
O982        H983   0.992       .  S
C985        C986   1.404       .  A
C985        C990   1.392       .  A
C986        H991   1.084       .  S
C986        C987   1.410       .  A
C987        C988   1.421       .  A
C987        O992   1.370       .  S
C988        C989   1.429       .  A
C989        H993   1.079       .  S
C989        C990   1.391       .  A
C990        O994   1.373       .  S
O992        H996   0.992       .  S
O994        H995   0.992       .  S
C997        C998   1.391       .  A
C997       C1002   1.410       .  A
C998       H1003   1.084       .  S
C998        C999   1.385       .  A
C999       C1000   1.433       .  A
C999       O1004   1.364       .  S
C1000      C1001   1.424       .  A
C1001      H1005   1.083       .  S
C1001      C1002   1.414       .  A
C1002      O1006   1.371       .  S
O1004      H1008   0.993       .  S
O1006      H1007   0.992       .  S
C1009      C1010   1.416       .  A
C1009      C1014   1.438       .  A
C1010      H1015   1.057       .  S
C1010      C1011   1.388       .  A
C1011      C1012   1.393       .  A
C1011      O1016   1.374       .  S
C1012      C1013   1.401       .  A
C1013      H1017   1.083       .  S
C1013      C1014   1.416       .  A
C1014      O1018   1.372       .  S
O1016      H1020   0.992       .  S
O1018      H1019   0.992       .  S
C1021      C1022   1.391       .  A
C1021      C1026   1.404       .  A
C1022      H1027   1.084       .  S
C1022      C1023   1.398       .  A
C1023      C1024   1.430       .  A
C1023      O1028   1.372       .  S
C1024      C1025   1.420       .  A
C1025      H1029   1.069       .  S
C1025      C1026   1.409       .  A
C1026      O1030   1.371       .  S
O1028      H1032   0.993       .  S
O1030      H1031   0.992       .  S
C1033      C1034   1.424       .  A
C1033      C1038   1.424       .  A
C1034      H1039   1.081       .  S
C1034      C1035   1.394       .  A
C1035      C1036   1.393       .  A
C1035      O1040   1.372       .  S
C1036      C1037   1.400       .  A
C1037      H1041   1.084       .  S
C1037      C1038   1.409       .  A
C1038      O1042   1.371       .  S
O1040      H1044   0.992       .  S
O1042      H1043   0.992       .  S
C1045      C1046   1.408       .  A
C1045      C1050   1.399       .  A
C1046      H1051   1.083       .  S
C1046      C1047   1.413       .  A
C1047      C1048   1.420   1_655  A
C1047      O1052   1.370   1_655  S
C1048      C1049   1.419   1_455  A
C1049      H1053   1.084       .  S
C1049      C1050   1.382       .  A
C1050      O1054   1.373       .  S
O1052      H1056   0.992       .  S
O1054      H1055   0.992       .  S
C1057      C1058   1.383       .  A
C1057      C1062   1.405   1_455  A
C1058      H1063   1.085       .  S
C1058      C1059   1.391       .  A
C1059      C1060   1.443       .  A
C1059      O1064   1.373       .  S
C1060      C1061   1.414   1_455  A
C1061      H1065   1.082       .  S
C1061      C1062   1.403       .  A
C1062      O1066   1.371       .  S
O1064      H1068   0.993       .  S
O1066      H1067   0.992       .  S
C1069      C1070   1.387       .  A
C1069      C1074   1.409       .  A
C1070      H1075   1.085       .  S
C1070      C1071   1.386       .  A
C1071      C1072   1.428       .  A
C1071      O1076   1.372       .  S
C1072      C1073   1.410       .  A
C1073      H1077   1.080       .  S
C1073      C1074   1.409       .  A
C1074      O1078   1.371       .  S
O1076      H1080   0.992       .  S
O1078      H1079   0.992       .  S
C1081      C1082   1.412       .  A
C1081      C1086   1.402       .  A
C1082      H1087   1.083       .  S
C1082      C1083   1.418       .  A
C1083      C1084   1.419       .  A
C1083      O1088   1.370       .  S
C1084      C1085   1.418       .  A
C1085      H1089   1.082       .  S
C1085      C1086   1.388       .  A
C1086      O1090   1.373       .  S
O1088      H1092   0.992       .  S
O1090      H1091   0.992   1_565  S
C1093      C1094   1.422   1_545  A
C1093      C1098   1.420       .  A
C1094      H1099   1.081       .  S
C1094      C1095   1.384       .  A
C1095      C1096   1.398   1_565  A
C1095      O1100   1.374       .  S
C1096      C1097   1.409       .  A
C1097      H1101   1.083       .  S
C1097      C1098   1.417       .  A
C1098      O1102   1.370       .  S
O1100      H1104   0.992       .  S
O1102      H1103   0.992       .  S
C1105      C1106   1.387       .  A
C1105      C1110   1.405       .  A
C1106      H1111   1.085       .  S
C1106      C1107   1.395       .  A
C1107      C1108   1.437       .  A
C1107      O1112   1.373       .  S
C1108      C1109   1.416       .  A
C1109      H1113   1.081       .  S
C1109      C1110   1.408       .  A
C1110      O1114   1.371       .  S
O1112      H1116   0.992       .  S
O1114      H1115   0.992       .  S
C1117      C1118   1.424       .  A
C1117      C1122   1.421       .  A
C1118      H1123   1.079       .  S
C1118      C1119   1.381       .  A
C1119      C1120   1.402       .  A
C1119      O1124   1.373       .  S
C1120      C1121   1.411       .  A
C1121      H1125   1.083       .  S
C1121      C1122   1.417       .  A
C1122      O1126   1.372       .  S
O1124      H1128   0.992       .  S
O1126      H1127   0.992       .  S
C1129      C1130   1.406       .  A
C1129      C1134   1.406       .  A
C1130      H1135   1.083       .  S
C1130      C1131   1.412       .  A
C1131      C1132   1.428       .  A
C1131      O1136   1.374       .  S
C1132      C1133   1.420       .  A
C1133      H1137   1.074       .  S
C1133      C1134   1.392       .  A
C1134      O1138   1.373       .  S
O1136      H1140   0.992       .  S
O1138      H1139   0.992       .  S
C1141      C1142   1.417   1_455  A
C1141      C1146   1.443       .  A
C1142      H1147   1.083       .  S
C1142      C1143   1.409       .  A
C1143      C1144   1.405   1_655  A
C1143      O1148   1.371       .  S
C1144      C1145   1.383       .  A
C1145      H1149   1.085       .  S
C1145      C1146   1.389       .  A
C1146      O1150   1.371       .  S
O1148      H1152   0.991       .  S
O1150      H1151   0.992       .  S
C1153      C1154   1.407       .  A
C1153      C1158   1.400       .  A
C1154      H1159   1.083       .  S
C1154      C1155   1.412       .  A
C1155      C1156   1.421   1_655  A
C1155      O1160   1.369       .  S
C1156      C1157   1.423       .  A
C1157      H1161   1.083       .  S
C1157      C1158   1.385   1_455  A
C1158      O1162   1.373       .  S
O1160      H1164   0.993       .  S
O1162      H1163   0.992   1_655  S
C1165      C1166   1.392       .  A
C1165      C1170   1.413       .  A
C1166      H1171   1.084       .  S
C1166      C1167   1.390       .  A
C1167      C1168   1.429       .  A
C1167      O1172   1.374       .  S
C1168      C1169   1.410       .  A
C1169      H1173   1.081       .  S
C1169      C1170   1.409       .  A
C1170      O1174   1.371       .  S
O1172      H1176   0.992       .  S
O1174      H1175   0.992       .  S
C1177      C1178   1.389       .  A
C1177      C1182   1.408       .  A
C1178      H1183   1.085       .  S
C1178      C1179   1.389       .  A
C1179      C1180   1.427       .  A
C1179      O1184   1.372       .  S
C1180      C1181   1.412       .  A
C1181      H1185   1.081       .  S
C1181      C1182   1.409       .  A
C1182      O1186   1.371       .  S
O1184      H1188   0.992       .  S
O1186      H1187   0.992       .  S
C1189      C1190   1.406       .  A
C1189      C1194   1.396       .  A
C1190      H1195   1.084       .  S
C1190      C1191   1.407       .  A
C1191      C1192   1.418       .  A
C1191      O1196   1.369       .  S
C1192      C1193   1.423       .  A
C1193      H1197   1.085       .  S
C1193      C1194   1.382       .  A
C1194      O1198   1.373       .  S
O1196      H1200   0.992       .  S
O1198      H1199   0.992       .  S
C1201      C1202   1.406       .  A
C1201      C1206   1.394       .  A
C1202      H1207   1.083       .  S
C1202      C1203   1.416       .  A
C1203      C1204   1.419       .  A
C1203      O1208   1.372       .  S
C1204      C1205   1.421       .  A
C1205      H1209   1.083       .  S
C1205      C1206   1.384       .  A
C1206      O1210   1.373       .  S
O1208      H1212   0.992       .  S
O1210      H1211   0.992       .  S
C1213      C1214   1.426       .  A
C1213      C1218   1.424       .  A
C1214      H1219   1.077       .  S
C1214      C1215   1.393       .  A
C1215      C1216   1.396       .  A
C1215      O1220   1.373       .  S
C1216      C1217   1.404       .  A
C1217      H1221   1.084       .  S
C1217      C1218   1.411       .  A
C1218      O1222   1.374       .  S
O1220      H1224   0.992       .  S
O1222      H1223   0.992       .  S
C1225      C1226   1.412       .  A
C1225      C1230   1.428       .  A
C1226      H1231   1.080       .  S
C1226      C1227   1.410       .  A
C1227      C1228   1.412       .  A
C1227      O1232   1.371       .  S
C1228      C1229   1.393       .  A
C1229      H1233   1.084       .  S
C1229      C1230   1.392       .  A
C1230      O1234   1.374       .  S
O1232      H1236   0.992       .  S
O1234      H1235   0.992       .  S
C1237      C1238   1.422       .  A
C1237      C1242   1.425       .  A
C1238      H1243   1.075       .  S
C1238      C1239   1.385       .  A
C1239      C1240   1.401       .  A
C1239      O1244   1.373       .  S
C1240      C1241   1.407       .  A
C1241      H1245   1.083       .  S
C1241      C1242   1.415       .  A
C1242      O1246   1.373       .  S
O1244      H1248   0.992       .  S
O1246      H1247   0.991       .  S
C1249      C1250   1.403   1_554  A
C1249      C1254   1.395       .  A
C1250      H1255   1.084       .  S
C1250      C1251   1.407       .  A
C1251      C1252   1.423   1_556  A
C1251      O1256   1.373       .  S
C1252      C1253   1.425       .  A
C1253      H1257   1.076       .  S
C1253      C1254   1.390       .  A
C1254      O1258   1.373       .  S
O1256      H1260   0.992       .  S
O1258      H1259   0.992       .  S
C1261      C1262   1.420       .  A
C1261      C1266   1.419       .  A
C1262      H1267   1.083   1_556  S
C1262      C1263   1.381       .  A
C1263      C1264   1.400       .  A
C1263      O1268   1.373       .  S
C1264      C1265   1.406       .  A
C1265      H1269   1.083       .  S
C1265      C1266   1.408       .  A
C1266      O1270   1.368       .  S
O1268      H1272   0.992       .  S
O1270      H1271   0.992   1_556  S
C1273      C1274   1.422       .  A
C1273      C1278   1.419       .  A
C1274      H1279   1.084       .  S
C1274      C1275   1.388       .  A
C1275      C1276   1.397       .  A
C1275      O1280   1.372       .  S
C1276      C1277   1.405       .  A
C1277      H1281   1.084       .  S
C1277      C1278   1.408       .  A
C1278      O1282   1.371       .  S
O1280      H1284   0.992       .  S
O1282      H1283   0.992       .  S
C1285      C1286   1.392       .  A
C1285      C1290   1.410       .  A
C1286      H1291   1.084       .  S
C1286      C1287   1.396       .  A
C1287      C1288   1.431       .  A
C1287      O1292   1.370       .  S
C1288      C1289   1.415       .  A
C1289      H1293   1.068       .  S
C1289      C1290   1.405       .  A
C1290      O1294   1.372       .  S
O1292      H1296   0.992       .  S
O1294      H1295   0.992       .  S
C1297      C1298   1.390       .  A
C1297      C1302   1.413       .  A
C1298      H1303   1.084       .  S
C1298      C1299   1.387       .  A
C1299      C1300   1.430       .  A
C1299      O1304   1.373       .  S
C1300      C1301   1.409       .  A
C1301      H1305   1.080       .  S
C1301      C1302   1.407       .  A
C1302      O1306   1.371       .  S
O1304      H1308   0.992       .  S
O1306      H1307   0.992       .  S
C1309      C1310   1.404       .  A
C1309      C1314   1.390       .  A
C1310      H1315   1.083       .  S
C1310      C1311   1.415       .  A
C1311      C1312   1.424       .  A
C1311      O1316   1.370       .  S
C1312      C1313   1.428       .  A
C1313      H1317   1.078       .  S
C1313      C1314   1.389       .  A
C1314      O1318   1.373       .  S
O1316      H1320   0.992       .  S
O1318      H1319   0.992       .  S
C1321      C1322   1.413       .  A
C1321      C1326   1.430       .  A
C1322      H1327   1.080       .  S
C1322      C1323   1.413       .  A
C1323      C1324   1.413       .  A
C1323      O1328   1.371       .  S
C1324      C1325   1.392       .  A
C1325      H1329   1.084       .  S
C1325      C1326   1.388       .  A
C1326      O1330   1.375       .  S
O1328      H1332   0.992   1_655  S
O1330      H1331   0.992   1_655  S
C1333      C1334   1.390   1_455  A
C1333      C1338   1.413       .  A
C1334      H1339   1.084       .  S
C1334      C1335   1.387       .  A
C1335      C1336   1.441       .  A
C1335      O1340   1.372       .  S
C1336      C1337   1.418   1_655  A
C1337      H1341   1.083       .  S
C1337      C1338   1.415       .  A
C1338      O1342   1.371       .  S
O1340      H1344   0.992       .  S
O1342      H1343   0.992       .  S
C1345      C1346   1.418       .  A
C1345      C1350   1.427       .  A
C1346      H1351   1.074       .  S
C1346      C1347   1.409       .  A
C1347      C1348   1.407       .  A
C1347      O1352   1.371       .  S
C1348      C1349   1.392       .  A
C1349      H1353   1.084       .  S
C1349      C1350   1.394       .  A
C1350      O1354   1.365       .  S
O1352      H1356   0.992       .  S
O1354      H1355   0.992       .  S
C1357      C1358   1.398       .  A
C1357      C1362   1.391       .  A
C1358      H1363   1.084       .  S
C1358      C1359   1.412       .  A
C1359      C1360   1.436       .  A
C1359      O1364   1.371       .  S
C1360      C1361   1.418       .  A
C1361      H1365   1.070       .  S
C1361      C1362   1.389       .  A
C1362      O1366   1.373       .  S
O1364      H1368   0.993       .  S
O1366      H1367   0.992       .  S
C1369      C1370   1.393       .  A
C1369      C1374   1.406       .  A
C1370      H1375   1.084       .  S
C1370      C1371   1.390       .  A
C1371      C1372   1.428       .  A
C1371      O1376   1.367       .  S
C1372      C1373   1.417       .  A
C1373      H1377   1.074       .  S
C1373      C1374   1.405       .  A
C1374      O1378   1.371       .  S
O1376      H1380   0.992       .  S
O1378      H1379   0.992       .  S
C1381      C1382   1.423       .  A
C1381      C1386   1.436       .  A
C1382      H1387   1.073       .  S
C1382      C1383   1.392       .  A
C1383      C1384   1.396       .  A
C1383      O1388   1.373       .  S
C1384      C1385   1.402       .  A
C1385      H1389   1.084       .  S
C1385      C1386   1.414       .  A
C1386      O1390   1.372       .  S
O1388      H1392   0.992       .  S
O1390      H1391   0.993       .  S
C1393      C1394   1.402       .  A
C1393      C1398   1.398       .  A
C1394      H1399   1.084       .  S
C1394      C1395   1.413       .  A
C1395      C1396   1.434       .  A
C1395      O1400   1.372       .  S
C1396      C1397   1.419       .  A
C1397      H1401   1.075       .  S
C1397      C1398   1.386       .  A
C1398      O1402   1.373       .  S
O1400      H1404   0.993       .  S
O1402      H1403   0.992       .  S
C1405      C1406   1.388       .  A
C1405      C1410   1.400       .  A
C1406      H1411   1.085       .  S
C1406      C1407   1.394       .  A
C1407      C1408   1.428       .  A
C1407      O1412   1.367       .  S
C1408      C1409   1.419       .  A
C1409      H1413   1.071       .  S
C1409      C1410   1.406       .  A
C1410      O1414   1.371       .  S
O1412      H1416   0.993       .  S
O1414      H1415   0.992       .  S
C1417      C1418   1.419       .  A
C1417      C1422   1.436       .  A
C1418      H1423   1.072       .  S
C1418      C1419   1.390       .  A
C1419      C1420   1.396       .  A
C1419      O1424   1.373       .  S
C1420      C1421   1.402       .  A
C1421      H1425   1.084       .  S
C1421      C1422   1.416       .  A
C1422      O1426   1.371       .  S
O1424      H1428   0.992       .  S
O1426      H1427   0.993       .  S
C1429      C1430   1.420       .  A
C1429      C1434   1.421       .  A
C1430      H1435   1.080       .  S
C1430      C1431   1.389       .  A
C1431      C1432   1.407       .  A
C1431      O1436   1.373       .  S
C1432      C1433   1.411       .  A
C1433      H1437   1.083       .  S
C1433      C1434   1.419       .  A
C1434      O1438   1.372       .  S
O1436      H1440   0.992       .  S
O1438      H1439   0.992       .  S
C1441      C1442   1.413       .  A
C1441      C1446   1.430       .  A
C1442      H1447   1.080       .  S
C1442      C1443   1.411       .  A
C1443      C1444   1.409       .  A
C1443      O1448   1.371       .  S
C1444      C1445   1.388       .  A
C1445      H1449   1.085       .  S
C1445      C1446   1.389       .  A
C1446      O1450   1.373       .  S
O1448      H1452   0.992       .  S
O1450      H1451   0.992       .  S
C1453      C1454   1.426       .  A
C1453      C1458   1.422       .  A
C1454      H1459   1.080       .  S
C1454      C1455   1.392       .  A
C1455      C1456   1.393       .  A
C1455      O1460   1.373       .  S
C1456      C1457   1.404       .  A
C1457      H1461   1.083       .  S
C1457      C1458   1.413       .  A
C1458      O1462   1.371       .  S
O1460      H1464   0.992       .  S
O1462      H1463   0.992       .  S
C1465      C1466   1.427       .  A
C1465      C1470   1.427       .  A
C1466      H1471   1.074       .  S
C1466      C1467   1.390       .  A
C1467      C1468   1.391       .  A
C1467      O1472   1.373       .  S
C1468      C1469   1.401       .  A
C1469      H1473   1.084       .  S
C1469      C1470   1.410       .  A
C1470      O1474   1.372       .  S
O1472      H1476   0.992       .  S
O1474      H1475   0.992       .  S
C1477      C1478   1.407       .  A
C1477      C1482   1.402       .  A
C1478      H1483   1.083       .  S
C1478      C1479   1.407       .  A
C1479      C1480   1.419       .  A
C1479      O1484   1.368       .  S
C1480      C1481   1.420       .  A
C1481      H1485   1.084       .  S
C1481      C1482   1.386       .  A
C1482      O1486   1.373       .  S
O1484      H1488   0.991       .  S
O1486      H1487   0.992       .  S
C1489      C1490   1.421       .  A
C1489      C1494   1.444       .  A
C1490      H1495   1.083       .  S
C1490      C1491   1.418       .  A
C1491      C1492   1.411       .  A
C1491      O1496   1.370       .  S
C1492      C1493   1.389       .  A
C1493      H1497   1.084       .  S
C1493      C1494   1.385       .  A
C1494      O1498   1.371       .  S
O1496      H1500   0.992       .  S
O1498      H1499   0.992       .  S
C1501      C1502   1.414       .  A
C1501      C1506   1.437       .  A
C1502      H1507   1.078       .  S
C1502      C1503   1.411       .  A
C1503      C1504   1.408       .  A
C1503      O1508   1.371       .  S
C1504      C1505   1.387       .  A
C1505      H1509   1.085       .  S
C1505      C1506   1.391       .  A
C1506      O1510   1.374       .  S
O1508      H1512   0.992       .  S
O1510      H1511   0.992       .  S
C1513      C1514   1.408       .  A
C1513      C1518   1.399       .  A
C1514      H1519   1.083       .  S
C1514      C1515   1.410       .  A
C1515      C1516   1.418       .  A
C1515      O1520   1.369       .  S
C1516      C1517   1.420       .  A
C1517      H1521   1.084       .  S
C1517      C1518   1.388       .  A
C1518      O1522   1.373       .  S
O1520      H1524   0.991       .  S
O1522      H1523   0.992       .  S
C1525      C1526   1.405   1_556  A
C1525      C1530   1.393       .  A
C1526      H1531   1.084       .  S
C1526      C1527   1.414       .  A
C1527      C1528   1.421       .  A
C1527      O1532   1.370       .  S
C1528      C1529   1.423   1_554  A
C1529      H1533   1.082       .  S
C1529      C1530   1.386       .  A
C1530      O1534   1.373       .  S
O1532      H1536   0.992   1_554  S
O1534      H1535   0.992   1_556  S
C1537      C1538   1.417   1_554  A
C1537      C1542   1.440       .  A
C1538      H1543   1.083       .  S
C1538      C1539   1.409       .  A
C1539      C1540   1.405   1_556  A
C1539      O1544   1.371       .  S
C1540      C1541   1.386       .  A
C1541      H1545   1.085       .  S
C1541      C1542   1.396       .  A
C1542      O1546   1.373       .  S
O1544      H1548   0.992       .  S
O1546      H1547   0.993       .  S
C1549      C1550   1.412       .  A
C1549      C1554   1.429       .  A
C1550      H1555   1.068       .  S
C1550      C1551   1.402       .  A
C1551      C1552   1.409       .  A
C1551      O1556   1.372       .  S
C1552      C1553   1.394       .  A
C1553      H1557   1.084       .  S
C1553      C1554   1.396       .  A
C1554      O1558   1.370       .  S
O1556      H1560   0.992       .  S
O1558      H1559   0.992       .  S
C1561      C1562   1.423       .  A
C1561      C1566   1.435       .  A
C1562      H1567   1.079       .  S
C1562      C1563   1.392       .  A
C1563      C1564   1.397       .  A
C1563      O1568   1.373       .  S
C1564      C1565   1.399       .  A
C1565      H1569   1.084       .  S
C1565      C1566   1.411       .  A
C1566      O1570   1.369       .  S
O1568      H1572   0.992       .  S
O1570      H1571   0.993       .  S
C1573      C1574   1.419       .  A
C1573      C1578   1.431       .  A
C1574      H1579   1.070       .  S
C1574      C1575   1.409       .  A
C1575      C1576   1.405       .  A
C1575      O1580   1.372       .  S
C1576      C1577   1.385       .  A
C1577      H1581   1.084       .  S
C1577      C1578   1.392       .  A
C1578      O1582   1.365       .  S
O1580      H1584   0.992   1_565  S
O1582      H1583   0.992       .  S
C1585      C1586   1.393       .  A
C1585      C1590   1.409       .  A
C1586      H1591   1.084       .  S
C1586      C1587   1.394       .  A
C1587      C1588   1.429       .  A
C1587      O1592   1.367       .  S
C1588      C1589   1.419       .  A
C1589      H1593   1.071       .  S
C1589      C1590   1.411       .  A
C1590      O1594   1.371       .  S
O1592      H1596   0.992       .  S
O1594      H1595   0.992       .  S
C1597      C1598   1.436       .  A
C1597      C1602   1.432       .  A
C1598      H1603   1.076       .  S
C1598      C1599   1.384       .  A
C1599      C1600   1.385       .  A
C1599      O1604   1.374       .  S
C1600      C1601   1.403       .  A
C1601      H1605   1.083       .  S
C1601      C1602   1.418       .  A
C1602      O1606   1.373       .  S
O1604      H1608   0.992       .  S
O1606      H1607   0.992       .  S
C1609      C1610   1.423       .  A
C1609      C1614   1.426       .  A
C1610      H1615   1.082       .  S
C1610      C1611   1.412       .  A
C1611      C1612   1.408       .  A
C1611      O1616   1.371       .  S
C1612      C1613   1.394       .  A
C1613      H1617   1.084       .  S
C1613      C1614   1.392       .  A
C1614      O1618   1.364       .  S
O1616      H1620   0.992       .  S
O1618      H1619   0.992       .  S
C1621      C1622   1.424       .  A
C1621      C1626   1.418       .  A
C1622      H1627   1.084       .  S
C1622      C1623   1.382       .  A
C1623      C1624   1.393       .  A
C1623      O1628   1.373       .  S
C1624      C1625   1.406       .  A
C1625      H1629   1.083       .  S
C1625      C1626   1.410       .  A
C1626      O1630   1.369       .  S
O1628      H1632   0.992       .  S
O1630      H1631   0.992       .  S
C1633      C1634   1.411       .  A
C1633      C1638   1.429       .  A
C1634      H1639   1.080       .  S
C1634      C1635   1.406       .  A
C1635      C1636   1.410       .  A
C1635      O1640   1.371       .  S
C1636      C1637   1.391       .  A
C1637      H1641   1.084       .  S
C1637      C1638   1.388       .  A
C1638      O1642   1.375       .  S
O1640      H1644   0.992       .  S
O1642      H1643   0.992   1_556  S
C1645      C1646   1.408       .  A
C1645      C1650   1.401   1_554  A
C1646      H1651   1.083       .  S
C1646      C1647   1.414       .  A
C1647      C1648   1.422       .  A
C1647      O1652   1.372       .  S
C1648      C1649   1.422   1_554  A
C1649      H1653   1.077       .  S
C1649      C1650   1.382       .  A
C1650      O1654   1.373       .  S
O1652      H1656   0.992       .  S
O1654      H1655   0.992       .  S
C1657      C1658   1.403       .  A
C1657      C1662   1.395       .  A
C1658      H1663   1.084       .  S
C1658      C1659   1.410       .  A
C1659      C1660   1.423       .  A
C1659      O1664   1.372       .  S
C1660      C1661   1.426       .  A
C1661      H1665   1.077       .  S
C1661      C1662   1.390       .  A
C1662      O1666   1.373       .  S
O1664      H1668   0.992       .  S
O1666      H1667   0.992       .  S
C1669      C1670   1.407       .  A
C1669      C1674   1.392       .  A
C1670      H1675   1.083       .  S
C1670      C1671   1.416       .  A
C1671      C1672   1.419       .  A
C1671      O1676   1.371       .  S
C1672      C1673   1.421       .  A
C1673      H1677   1.081       .  S
C1673      C1674   1.387       .  A
C1674      O1678   1.372       .  S
O1676      H1680   0.992       .  S
O1678      H1679   0.992       .  S
C1681      C1682   1.388       .  A
C1681      C1686   1.407       .  A
C1682      H1687   1.085       .  S
C1682      C1683   1.386       .  A
C1683      C1684   1.448       .  A
C1683      O1688   1.378       .  S
C1684      C1685   1.419       .  A
C1685      H1689   1.069       .  S
C1685      C1686   1.414       .  A
C1686      O1690   1.371       .  S
O1688      H1692   0.992       .  S
O1690      H1691   0.992       .  S
C1693      C1694   1.419       .  A
C1693      C1698   1.431       .  A
C1694      H1699   1.073       .  S
C1694      C1695   1.408       .  A
C1695      C1696   1.404       .  A
C1695      O1700   1.371       .  S
C1696      C1697   1.387       .  A
C1697      H1701   1.085       .  S
C1697      C1698   1.389       .  A
C1698      O1702   1.366       .  S
O1700      H1704   0.992       .  S
O1702      H1703   0.992       .  S
C1705      C1706   1.413       .  A
C1705      C1710   1.432       .  A
C1706      H1711   1.079       .  S
C1706      C1707   1.410       .  A
C1707      C1708   1.409       .  A
C1707      O1712   1.371       .  S
C1708      C1709   1.388       .  A
C1709      H1713   1.085       .  S
C1709      C1710   1.386       .  A
C1710      O1714   1.373       .  S
O1712      H1716   0.992       .  S
O1714      H1715   0.992       .  S
C1717      C1718   1.411       .  A
C1717      C1722   1.431       .  A
C1718      H1723   1.080       .  S
C1718      C1719   1.409       .  A
C1719      C1720   1.409       .  A
C1719      O1724   1.371       .  S
C1720      C1721   1.386       .  A
C1721      H1725   1.085       .  S
C1721      C1722   1.383       .  A
C1722      O1726   1.374       .  S
O1724      H1728   0.992       .  S
O1726      H1727   0.992       .  S
C1729      C1730   1.421       .  A
C1729      C1734   1.423       .  A
C1730      H1735   1.077       .  S
C1730      C1731   1.380       .  A
C1731      C1732   1.406       .  A
C1731      O1736   1.374       .  S
C1732      C1733   1.411       .  A
C1733      H1737   1.083       .  S
C1733      C1734   1.420       .  A
C1734      O1738   1.372       .  S
O1736      H1740   0.992       .  S
O1738      H1739   0.992       .  S
C1741      C1742   1.412       .  A
C1741      C1746   1.431       .  A
C1742      H1747   1.080       .  S
C1742      C1743   1.411       .  A
C1743      C1744   1.410       .  A
C1743      O1748   1.371       .  S
C1744      C1745   1.387       .  A
C1745      H1749   1.085       .  S
C1745      C1746   1.384       .  A
C1746      O1750   1.374       .  S
O1748      H1752   0.992       .  S
O1750      H1751   0.992       .  S
C1753      C1754   1.420       .  A
C1753      C1758   1.419       .  A
C1754      H1759   1.084       .  S
C1754      C1755   1.387       .  A
C1755      C1756   1.398       .  A
C1755      O1760   1.372       .  S
C1756      C1757   1.408       .  A
C1757      H1761   1.083       .  S
C1757      C1758   1.413       .  A
C1758      O1762   1.371       .  S
O1760      H1764   0.992       .  S
O1762      H1763   0.992       .  S
C1765      C1766   1.422       .  A
C1765      C1770   1.422       .  A
C1766      H1771   1.077       .  S
C1766      C1767   1.384       .  A
C1767      C1768   1.403       .  A
C1767      O1772   1.373       .  S
C1768      C1769   1.408       .  A
C1769      H1773   1.083       .  S
C1769      C1770   1.414       .  A
C1770      O1774   1.372       .  S
O1772      H1776   0.992       .  S
O1774      H1775   0.992       .  S
C1777      C1778   1.403       .  A
C1777      C1782   1.391       .  A
C1778      H1783   1.083       .  S
C1778      C1779   1.412       .  A
C1779      C1780   1.424       .  A
C1779      O1784   1.372       .  S
C1780      C1781   1.427       .  A
C1781      H1785   1.078       .  S
C1781      C1782   1.390       .  A
C1782      O1786   1.373       .  S
O1784      H1788   0.992       .  S
O1786      H1787   0.992       .  S
C1789      C1790   1.410       .  A
C1789      C1794   1.404       .  A
C1790      H1795   1.083       .  S
C1790      C1791   1.417       .  A
C1791      C1792   1.422       .  A
C1791      O1796   1.372       .  S
C1792      C1793   1.423       .  A
C1793      H1797   1.078       .  S
C1793      C1794   1.386       .  A
C1794      O1798   1.374       .  S
O1796      H1800   0.992       .  S
O1798      H1799   0.992       .  S
C1801      C1802   1.392       .  A
C1801      C1806   1.414       .  A
C1802      H1807   1.084       .  S
C1802      C1803   1.390       .  A
C1803      C1804   1.429       .  A
C1803      O1808   1.374       .  S
C1804      C1805   1.411       .  A
C1805      H1809   1.080       .  S
C1805      C1806   1.411       .  A
C1806      O1810   1.371       .  S
O1808      H1812   0.992       .  S
O1810      H1811   0.992       .  S
C1813      C1814   1.390       .  A
C1813      C1818   1.411       .  A
C1814      H1819   1.084       .  S
C1814      C1815   1.385       .  A
C1815      C1816   1.441       .  A
C1815      O1820   1.369       .  S
C1816      C1817   1.420       .  A
C1817      H1821   1.082       .  S
C1817      C1818   1.415       .  A
C1818      O1822   1.371       .  S
O1820      H1824   0.992       .  S
O1822      H1823   0.992       .  S
C1825      C1826   1.408       .  A
C1825      C1830   1.406       .  A
C1826      H1831   1.083       .  S
C1826      C1827   1.416       .  A
C1827      C1828   1.423       .  A
C1827      O1832   1.371       .  S
C1828      C1829   1.420       .  A
C1829      H1833   1.079       .  S
C1829      C1830   1.388       .  A
C1830      O1834   1.373       .  S
O1832      H1836   0.992       .  S
O1834      H1835   0.992       .  S
C1837      C1838   1.387       .  A
C1837      C1842   1.403       .  A
C1838      H1843   1.084       .  S
C1838      C1839   1.392       .  A
C1839      C1840   1.428       .  A
C1839      O1844   1.367       .  S
C1840      C1841   1.419       .  A
C1841      H1845   1.068       .  S
C1841      C1842   1.408       .  A
C1842      O1846   1.372       .  S
O1844      H1848   0.992       .  S
O1846      H1847   0.992   1_565  S
C1849      C1850   1.417       .  A
C1849      C1854   1.430       .  A
C1850      H1855   1.068       .  S
C1850      C1851   1.407       .  A
C1851      C1852   1.405       .  A
C1851      O1856   1.372       .  S
C1852      C1853   1.386       .  A
C1853      H1857   1.085       .  S
C1853      C1854   1.388       .  A
C1854      O1858   1.369       .  S
O1856      H1860   0.992       .  S
O1858      H1859   0.992       .  S
C1861      C1862   1.403       .  A
C1861      C1866   1.398       .  A
C1862      H1867   1.084       .  S
C1862      C1863   1.413       .  A
C1863      C1864   1.429       .  A
C1863      O1868   1.367       .  S
C1864      C1865   1.422       .  A
C1865      H1869   1.081       .  S
C1865      C1866   1.390       .  A
C1866      O1870   1.373       .  S
O1868      H1872   0.993       .  S
O1870      H1871   0.992       .  S
C1873      C1874   1.388       .  A
C1873      C1878   1.408       .  A
C1874      H1879   1.085       .  S
C1874      C1875   1.386       .  A
C1875      C1876   1.431       .  A
C1875      O1880   1.373       .  S
C1876      C1877   1.412       .  A
C1877      H1881   1.080       .  S
C1877      C1878   1.409       .  A
C1878      O1882   1.371       .  S
O1880      H1884   0.992       .  S
O1882      H1883   0.992       .  S
C1885      C1886   1.405       .  A
C1885      C1890   1.391       .  A
C1886      H1891   1.083       .  S
C1886      C1887   1.412       .  A
C1887      C1888   1.422       .  A
C1887      O1892   1.372       .  S
C1888      C1889   1.428       .  A
C1889      H1893   1.077       .  S
C1889      C1890   1.385       .  A
C1890      O1894   1.374       .  S
O1892      H1896   0.992       .  S
O1894      H1895   0.992       .  S
C1897      C1898   1.404       .  A
C1897      C1902   1.395       .  A
C1898      H1903   1.084       .  S
C1898      C1899   1.409       .  A
C1899      C1900   1.424       .  A
C1899      O1904   1.374       .  S
C1900      C1901   1.426       .  A
C1901      H1905   1.075       .  S
C1901      C1902   1.389       .  A
C1902      O1906   1.373       .  S
O1904      H1908   0.992       .  S
O1906      H1907   0.992       .  S
C1909      C1910   1.417       .  A
C1909      C1914   1.433       .  A
C1910      H1915   1.066       .  S
C1910      C1911   1.407       .  A
C1911      C1912   1.404       .  A
C1911      O1916   1.372       .  S
C1912      C1913   1.387       .  A
C1913      H1917   1.084       .  S
C1913      C1914   1.392       .  A
C1914      O1918   1.370       .  S
O1916      H1920   0.992       .  S
O1918      H1919   0.992       .  S
C1921      C1922   1.385       .  A
C1921      C1926   1.409       .  A
C1922      H1927   1.085       .  S
C1922      C1923   1.382       .  A
C1923      C1924   1.431       .  A
C1923      O1928   1.374       .  S
C1924      C1925   1.412       .  A
C1925      H1929   1.080       .  S
C1925      C1926   1.409       .  A
C1926      O1930   1.371       .  S
O1928      H1932   0.992       .  S
O1930      H1931   0.992       .  S
C1933      C1934   1.391       .  A
C1933      C1938   1.410       .  A
C1934      H1939   1.084       .  S
C1934      C1935   1.390       .  A
C1935      C1936   1.430       .  A
C1935      O1940   1.375       .  S
C1936      C1937   1.413       .  A
C1937      H1941   1.081       .  S
C1937      C1938   1.409       .  A
C1938      O1942   1.371       .  S
O1940      H1944   0.992       .  S
O1942      H1943   0.992       .  S
