geometry optimzed in LAMMPS
_audit_creation_date              2020-11-30 
_audit_creation_method            'lammps2cif' 
_symmetry_space_group_name_H-M    'P1' 
_symmetry_Int_Tables_number       1 
_symmetry_cell_setting            triclinic 
loop_ 
_symmetry_equiv_pos_as_xyz 
  x,y,z 
_cell_length_a                    34.11624385 
_cell_length_b                    34.08072663644492 
_cell_length_c                    34.06377868738412 
_cell_angle_alpha                 89.77585386477321 
_cell_angle_beta                  90.22367269129194 
_cell_angle_gamma                 89.62587848777888 
loop_ 
_atom_site_label 
_atom_site_type_symbol 
_atom_site_fract_x 
_atom_site_fract_y 
_atom_site_fract_z 
_atom_site_charge 
N1          N  0.50451115  0.55581178  0.00812795    -0.36900
N2          N  0.44348478  0.49671157  0.00370639    -0.57500
N3          N  0.50275864  0.43622763  0.99912694    -0.36900
N4          N  0.56376401  0.49487907  0.00072510    -0.57500
C5          C  0.47255947  0.57838026  0.00042411     0.26700
C6          C  0.53654207  0.57730853  0.99918626     0.26700
C7          C  0.47033397  0.41634926  0.98823894     0.26700
C8          C  0.53414132  0.41552516  0.98640219     0.26700
C9          C  0.42162831  0.52833565  0.01356889     0.35300
C10         C  0.42080508  0.46488146  0.00975261     0.35300
C11         C  0.58661545  0.52547376  0.01078562     0.35300
C12         C  0.58563068  0.46213337  0.00635897     0.35300
C13         C  0.48438757  0.61475112  0.98668279    -0.22200
C14         C  0.52476535  0.61403382  0.98575399    -0.22200
C15         C  0.48118927  0.38285701  0.96788275    -0.22200
C16         C  0.52157066  0.38233143  0.96673111    -0.22200
C17         C  0.38486828  0.51658960  0.02600091    -0.23200
C18         C  0.38438153  0.47632392  0.02368854    -0.23200
C19         C  0.62312708  0.51211341  0.02311985    -0.23200
C20         C  0.62250705  0.47189050  0.02029181    -0.23200
C21         C  0.43319745  0.56765101  0.00764625    -0.18600
C22         C  0.57600517  0.56524598  0.00508248    -0.18600
C23         C  0.57355256  0.42406071  0.99575797    -0.18600
C24         C  0.43161530  0.42617254  0.99935248    -0.18600
H25         H  0.46584901  0.63931832  0.97834492     0.14300
H26         H  0.54330850  0.63796465  0.97649299     0.14300
H27         H  0.46202098  0.36062162  0.95604080     0.14300
H28         H  0.53965886  0.35957689  0.95390789     0.14300
H29         H  0.36066268  0.53516105  0.03492126     0.12600
H30         H  0.35974566  0.45772547  0.03060766     0.12600
H31         H  0.64784536  0.52957527  0.03241029     0.12600
H32         H  0.64663220  0.45217888  0.02701965     0.12600
H33         H  0.50454925  0.52891663  0.02267360     0.25900
H34         H  0.50357690  0.45954840  0.01875781     0.25900
N35         N  0.50081691  0.01204562  0.56043173    -0.36900
N36         N  0.43996287  0.01124820  0.49990403    -0.57500
N37         N  0.49994448  0.00449452  0.44077328    -0.36900
N38         N  0.56079227  0.00922518  0.50144332    -0.57500
C39         C  0.46868258  0.02146711  0.58152346     0.26700
C40         C  0.53264205  0.02199645  0.58203533     0.26700
C41         C  0.46842802  0.01377201  0.41820245     0.26700
C42         C  0.53230893  0.01149371  0.41914162     0.26700
C43         C  0.41781181  0.00445655  0.53196399     0.35300
C44         C  0.41736125  0.00273992  0.46839747     0.35300
C45         C  0.58268191  0.00178673  0.53380985     0.35300
C46         C  0.58208939  0.99683113  0.47053897     0.35300
C47         C  0.48009212  0.03776887  0.61699116    -0.22200
C48         C  0.52051441  0.03830929  0.61722332    -0.22200
C49         C  0.48091103  0.02667128  0.38172421    -0.22200
C50         C  0.52127811  0.02526859  0.38232134    -0.22200
C51         C  0.38089592  0.99171403  0.52075509    -0.23200
C52         C  0.38056635  0.99082288  0.48041702    -0.23200
C53         C  0.61795328  0.98437916  0.52346716    -0.23200
C54         C  0.61763959  0.98136216  0.48326970    -0.23200
C55         C  0.42967843  0.01214982  0.57099679    -0.18600
C56         C  0.57200291  0.01301404  0.57216973    -0.18600
C57         C  0.57123984  0.00281080  0.43093804    -0.18600
C58         C  0.42882328  0.00841569  0.42898971    -0.18600
H59         H  0.46124067  0.04751515  0.64055571     0.14300
H60         H  0.53886637  0.04850345  0.64103087     0.14300
H61         H  0.46281487  0.03573993  0.35710285     0.14300
H62         H  0.54032153  0.03303332  0.35821148     0.14300
H63         H  0.35655585  0.98432848  0.53961361     0.12600
H64         H  0.35601462  0.98267518  0.46202482     0.12600
H65         H  0.64165602  0.97544883  0.54280262     0.12600
H66         H  0.64110042  0.96966804  0.46540389     0.12600
H67         H  0.50084662  0.99481416  0.53533633     0.25900
H68         H  0.49946923  0.98983614  0.46758780     0.25900
N69         N  0.99873534  0.56630570  0.49750897    -0.36900
N70         N  0.99836177  0.50541957  0.55778421    -0.57500
N71         N  0.98987413  0.44662325  0.49733690    -0.36900
N72         N  0.99408184  0.50750711  0.43699668    -0.57500
C73         C  0.00948677  0.58713934  0.52937927     0.26700
C74         C  0.00772370  0.58801653  0.46549901     0.26700
C75         C  0.99906943  0.42388118  0.52878931     0.26700
C76         C  0.99656633  0.42497862  0.46480555     0.26700
C77         C  0.99360914  0.53747100  0.58056302     0.35300
C78         C  0.98996388  0.47399660  0.58055887     0.35300
C79         C  0.98804792  0.53997247  0.41481510     0.35300
C80         C  0.98323029  0.47669918  0.41476186     0.35300
C81         C  0.02557830  0.62253567  0.51751935    -0.22200
C82         C  0.02443301  0.62309254  0.47713041    -0.22200
C83         C  0.01172522  0.38734872  0.51609043    -0.22200
C84         C  0.01007404  0.38800876  0.47570752    -0.22200
C85         C  0.98222985  0.52633029  0.61800622    -0.23200
C86         C  0.98009634  0.48608453  0.61803967    -0.23200
C87         C  0.97347679  0.52979801  0.37826599    -0.23200
C88         C  0.97024668  0.48965164  0.37828266    -0.23200
C89         C  0.00216813  0.57634393  0.56876721    -0.18600
C90         C  0.99792965  0.57837003  0.42639476    -0.18600
C91         C  0.98844820  0.43697829  0.42573829    -0.18600
C92         C  0.99382477  0.43448959  0.56857886    -0.18600
H93         H  0.03635750  0.64585548  0.53605920     0.14300
H94         H  0.03403315  0.64693277  0.45848851     0.14300
H95         H  0.02065124  0.36258767  0.53408020     0.14300
H96         H  0.01764572  0.36386408  0.45657360     0.14300
H97         H  0.97657357  0.54517545  0.64287405     0.12600
H98         H  0.97242525  0.46780620  0.64286444     0.12600
H99         H  0.96626739  0.54922658  0.35404692     0.12600
H100        H  0.96017413  0.47196494  0.35397707     0.12600
H101        H  0.98155749  0.54122159  0.49783306     0.25900
H102        H  0.97552318  0.47363895  0.49807433     0.25900
C103        C  0.31015587  0.30786229  0.99535905     0.79900
N104        N  0.32006175  0.26911279  0.99327842    -0.78400
C105        C  0.29169071  0.24130635  0.99202833     0.82400
N106        N  0.25357514  0.25250966  0.99455338    -0.78300
C107        C  0.24332447  0.29081096  0.99871542     0.82500
N108        N  0.27169069  0.31863672  0.99786582    -0.80000
C109        C  0.31240946  0.68794849  0.01238889     0.79900
N110        N  0.27397512  0.67720099  0.01058160    -0.78400
C111        C  0.24526580  0.70500669  0.01273162     0.82400
N112        N  0.25536438  0.74333694  0.01438367    -0.78300
C113        C  0.29335266  0.75463328  0.01505874     0.82500
N114        N  0.32193343  0.72666934  0.01454081    -0.80000
C115        C  0.31109908  0.99743418  0.69065390     0.79900
N116        N  0.27237516  0.99868480  0.68057926    -0.78400
C117        C  0.24450938  0.99182614  0.70816048     0.82400
N118        N  0.25581771  0.98428972  0.74560700    -0.78300
C119        C  0.29408619  0.98321864  0.75615572     0.82500
N120        N  0.32183056  0.98984174  0.72850067    -0.80000
O121        O  0.28000309  0.99137788  0.94058739    -0.74700
O122        O  0.27465963  0.00375389  0.05155016    -0.74700
O123        O  0.27725284  0.05356936  0.98946047    -0.74800
O124        O  0.27736473  0.94224900  0.00261194    -0.74800
O125        O  0.34265438  0.94146245  0.00455596    -0.74800
O126        O  0.34233903  0.05433389  0.99427597    -0.74800
O127        O  0.33978991  0.00255430  0.05573594    -0.74700
O128        O  0.34528697  0.99293168  0.94311075    -0.74800
Ni129      Ni  0.27512720  0.99784854  0.99589526     1.25400
Ni130      Ni  0.34495529  0.99790416  0.99950845     1.25400
C131        C  0.31329965  0.98988495  0.92346941     0.87500
C132        C  0.30604896  0.00383587  0.07225345     0.87400
C133        C  0.30952703  0.07248740  0.98973236     0.87400
C134        C  0.30978083  0.92340534  0.00607293     0.87600
C135        C  0.30814033  0.01010497  0.30838060     0.79900
N136        N  0.31705239  0.00862606  0.26938327    -0.78400
C137        C  0.28809947  0.01092340  0.24186218     0.82400
N138        N  0.25043937  0.01457655  0.25387978    -0.78300
C139        C  0.24095819  0.01611029  0.29240794     0.82500
N140        N  0.26998369  0.01372189  0.31981587    -0.80000
C141        C  0.69296277  0.30248404  0.99090542     0.79900
N142        N  0.68276881  0.26428807  0.99638959    -0.78400
C143        C  0.71076526  0.23588049  0.99900030     0.82400
N144        N  0.74906511  0.24605186  0.99645044    -0.78300
C145        C  0.75975167  0.28391151  0.99043431     0.82500
N146        N  0.73154281  0.31222145  0.98808008    -0.80000
C147        C  0.99977979  0.31331751  0.68890551     0.79900
N148        N  0.99489660  0.27477217  0.67924330    -0.78400
C149        C  0.99669727  0.24664014  0.70769530     0.82400
N150        N  0.00389680  0.25737539  0.74519536    -0.78300
C151        C  0.00887867  0.29525795  0.75536106     0.82500
N152        N  0.00626736  0.32346585  0.72711874    -0.80000
O153        O  0.00394423  0.34861322  0.94222408    -0.74700
O154        O  0.99686024  0.34527819  0.05517482    -0.74700
O155        O  0.05703357  0.34849047  0.00238600    -0.74800
O156        O  0.94386392  0.34495760  0.99499642    -0.74800
O157        O  0.94745881  0.27977489  0.99172310    -0.74800
O158        O  0.05842329  0.28310726  0.00235610    -0.74800
O159        O  0.99810051  0.28007773  0.05257362    -0.74700
O160        O  0.00810418  0.28336295  0.94131480    -0.74800
Ni161      Ni  0.00033100  0.34931424  0.99874196     1.25400
Ni162      Ni  0.00308370  0.27942379  0.99693210     1.25400
C163        C  0.00758847  0.31637251  0.92323680     0.87500
C164        C  0.99584354  0.31177844  0.07246575     0.87400
C165        C  0.07624115  0.31595903  0.00391521     0.87400
C166        C  0.92711072  0.31143992  0.99194985     0.87600
C167        C  0.98432207  0.31565618  0.30784893     0.79900
N168        N  0.98713589  0.32434527  0.26882591    -0.78400
C169        C  0.99110236  0.29502485  0.24218590     0.82400
N170        N  0.99405315  0.25756297  0.25522159    -0.78300
C171        C  0.99176203  0.24839625  0.29380117     0.82500
N172        N  0.98619769  0.27759480  0.32021909    -0.80000
C173        C  0.00113536  0.69831217  0.30583711     0.79900
N174        N  0.00049578  0.68704372  0.26751604    -0.78400
C175        C  0.99918933  0.71446367  0.23848396     0.82400
N176        N  0.99907891  0.75301865  0.24813311    -0.78300
C177        C  0.00069724  0.76465398  0.28608288     0.82500
N178        N  0.00041137  0.73714744  0.31506226    -0.80000
C179        C  0.68990182  0.99261271  0.31064540     0.79900
N180        N  0.72861154  0.99824177  0.31886332    -0.78400
C181        C  0.75554184  0.99740496  0.28948914     0.82400
N182        N  0.74337336  0.99050856  0.25220235    -0.78300
C183        C  0.70486918  0.98602999  0.24356221     0.82500
N184        N  0.67818782  0.98707788  0.27288543    -0.80000
O185        O  0.94348667  0.00660848  0.28033016    -0.74700
O186        O  0.05517627  0.00875086  0.28260594    -0.74700
O187        O  0.00086963  0.95158017  0.28031089    -0.74800
O188        O  0.99832365  0.06311258  0.28269149    -0.74800
O189        O  0.99744696  0.06228276  0.34814038    -0.74800
O190        O  0.99911607  0.94924315  0.34568803    -0.74800
O191        O  0.05498906  0.00645285  0.34802262    -0.74700
O192        O  0.94171840  0.00518034  0.34562163    -0.74800
Ni193      Ni  0.99941274  0.00746351  0.27929987     1.25400
Ni194      Ni  0.99823454  0.00566114  0.34932792     1.25400
C195        C  0.92393572  0.00594029  0.31234506     0.87500
C196        C  0.07361218  0.00878442  0.31540274     0.87400
C197        C  0.00051406  0.93190801  0.31237635     0.87400
C198        C  0.99849320  0.08118136  0.31552513     0.87600
C199        C  0.69499665  0.68574733  0.99748805     0.79900
N200        N  0.73359036  0.67681872  0.99177884    -0.78400
C201        C  0.76005244  0.70583060  0.98529741     0.82400
N202        N  0.74723187  0.74356575  0.98396484    -0.78300
C203        C  0.70894977  0.75297291  0.98933037     0.82500
N204        N  0.68289509  0.72391305  0.99661805    -0.80000
C205        C  0.00425675  0.69488842  0.68934046     0.79900
N206        N  0.00661917  0.68183875  0.72704773    -0.78400
C207        C  0.00720914  0.70775936  0.75713095     0.82400
N208        N  0.00810607  0.74674676  0.74913612    -0.78300
C209        C  0.00739162  0.76022635  0.71163596     0.82500
N210        N  0.00442878  0.73412594  0.68170203    -0.80000
C211        C  0.69190466  0.00718527  0.69407756     0.79900
N212        N  0.73038274  0.01153620  0.68388019    -0.78400
C213        C  0.75878564  0.01148148  0.71211226     0.82400
N214        N  0.74841092  0.00631661  0.75003731    -0.78300
C215        C  0.71061086  0.00165043  0.76068571     0.82500
N216        N  0.68225013  0.00278013  0.73264054    -0.80000
O217        O  0.65301573  0.99941811  0.94539150    -0.74700
O218        O  0.64997602  0.99011168  0.05808983    -0.74700
O219        O  0.65253606  0.05151410  0.00610028    -0.74800
O220        O  0.65080015  0.93849499  0.99688790    -0.74800
O221        O  0.71612139  0.93802525  0.99760895    -0.74800
O222        O  0.71772794  0.04895385  0.00982982    -0.74800
O223        O  0.71528150  0.98690182  0.05926892    -0.74700
O224        O  0.71828887  0.99912449  0.94831994    -0.74800
Ni225      Ni  0.64909475  0.99504949  0.00164849     1.25400
Ni226      Ni  0.71902234  0.99333813  0.00389841     1.25400
C227        C  0.68644527  0.99976344  0.92831684     0.87500
C228        C  0.68233966  0.98600602  0.07701975     0.87400
C229        C  0.68574010  0.06875638  0.00955412     0.87400
C230        C  0.68358436  0.91993526  0.99450498     0.87600
O231        O  0.94482684  0.00437888  0.65668241    -0.74700
O232        O  0.05792497  0.00216459  0.65631081    -0.74700
O233        O  0.00109403  0.94673172  0.65702660    -0.74800
O234        O  0.00157713  0.05982719  0.65585925    -0.74800
O235        O  0.00201737  0.05940865  0.72125546    -0.74800
O236        O  0.00179423  0.94756467  0.72245035    -0.74800
O237        O  0.05763810  0.00221114  0.72176489    -0.74700
O238        O  0.94598358  0.00473431  0.72203779    -0.74800
Ni239      Ni  0.00135094  0.00325895  0.65403413     1.25400
Ni240      Ni  0.00186675  0.00351066  0.72408126     1.25400
C241        C  0.92680986  0.00582353  0.68964619     0.87500
C242        C  0.07623878  0.00065165  0.68926464     0.87400
C243        C  0.00217522  0.92860727  0.69009051     0.87400
C244        C  0.00095554  0.07822331  0.68863531     0.87600
O245        O  0.94688552  0.65029178  0.99457693    -0.74700
O246        O  0.05988730  0.64900115  0.00211163    -0.74700
O247        O  0.99992471  0.65205419  0.05502042    -0.74800
O248        O  0.00715751  0.64745659  0.94205289    -0.74800
O249        O  0.00936467  0.71286329  0.94025777    -0.74800
O250        O  0.99845131  0.71734421  0.05110949    -0.74800
O251        O  0.05941161  0.71444924  0.00137558    -0.74700
O252        O  0.94815659  0.71546991  0.98999470    -0.74800
Ni253      Ni  0.00339892  0.64721760  0.99856624     1.25400
Ni254      Ni  0.00382569  0.71720322  0.99557823     1.25400
C255        C  0.92892990  0.68331739  0.99062730     0.87500
C256        C  0.07809860  0.68180210  0.00332694     0.87400
C257        C  0.99756975  0.68580500  0.07152011     0.87400
C258        C  0.01047136  0.67971975  0.92285017     0.87600
C259        C  0.86763007  0.02884566  0.72454547    -0.26600
C260        C  0.88343116  0.01019282  0.69148831    -0.14700
C261        C  0.85758208  0.99569851  0.66240622     0.36000
C262        C  0.81662899  0.99800087  0.66851488    -0.26100
C263        C  0.80117244  0.01486719  0.70277269    -0.15300
C264        C  0.82718236  0.03161222  0.73025573     0.37000
N265        N  0.81267290  0.05155104  0.76427190    -0.89500
H266        H  0.88687683  0.04132666  0.74653486     0.18100
H267        H  0.79683725  0.98524563  0.64722202     0.18100
N268        N  0.87276707  0.97712703  0.62780813    -0.88600
H269        H  0.82320311  0.08029300  0.76376962     0.35500
H270        H  0.82410379  0.03752210  0.78920204     0.40600
H271        H  0.88594718  0.99889535  0.61077208     0.40200
H272        H  0.84991764  0.96593935  0.61073626     0.35100
C273        C  0.66713627  0.01408054  0.81854774    -0.26600
C274        C  0.70130623  0.99706926  0.80290490    -0.14700
C275        C  0.72843599  0.97852795  0.82845889     0.36000
C276        C  0.72244751  0.98006933  0.86897959    -0.26100
C277        C  0.68945976  0.99874530  0.88496987    -0.15300
C278        C  0.66090719  0.01515586  0.85948762     0.37000
N279        N  0.62648793  0.03382656  0.87512590    -0.89500
H280        H  0.64614885  0.02805558  0.79896623     0.18100
H281        H  0.74379422  0.96624645  0.88829501     0.18100
N282        N  0.76209528  0.95811108  0.81317601    -0.88600
H283        H  0.60837979  0.04407801  0.85241816     0.35500
H284        H  0.63558493  0.05850714  0.89076982     0.40600
H285        H  0.75185997  0.93431436  0.79688742     0.40200
H286        H  0.77928692  0.94640663  0.83590346     0.35100
C287        C  0.03977034  0.71205174  0.82136819    -0.26600
C288        C  0.01068496  0.69442654  0.79834318    -0.14700
C289        C  0.98479746  0.66715400  0.81610052     0.36000
C290        C  0.98791903  0.65986755  0.85664416    -0.26100
C291        C  0.01527142  0.67981324  0.87987853    -0.15300
C292        C  0.04287929  0.70469635  0.86162960     0.37000
N293        N  0.07407901  0.72340508  0.88298091    -0.89500
H294        H  0.06025107  0.73220791  0.80793101     0.18100
H295        H  0.96679617  0.64072705  0.87054515     0.18100
N296        N  0.95366514  0.64813340  0.79499659    -0.88600
H297        H  0.10050707  0.71490331  0.86998097     0.35500
H298        H  0.07596123  0.71309578  0.91180197     0.40600
H299        H  0.95201512  0.65722707  0.76583731     0.40200
H300        H  0.92716932  0.65681515  0.80773195     0.35100
C301        C  0.98594582  0.81926353  0.67335915    -0.26600
C302        C  0.00888327  0.80306271  0.70384257    -0.14700
C303        C  0.03211384  0.82845716  0.72701467     0.36000
C304        C  0.02992739  0.86892979  0.72093774    -0.26100
C305        C  0.00546393  0.88529780  0.69193929    -0.15300
C306        C  0.98402347  0.85999280  0.66716613     0.37000
N307        N  0.95888344  0.87475943  0.63668138    -0.89500
H308        H  0.96836348  0.80026745  0.65501807     0.18100
H309        H  0.04740657  0.88789456  0.73943113     0.18100
N310        N  0.05895990  0.81421673  0.75632843    -0.88600
H311        H  0.97592658  0.89009090  0.61642072     0.35500
H312        H  0.93859471  0.89414486  0.64911056     0.40600
H313        H  0.07731951  0.79310223  0.74371225     0.40200
H314        H  0.04327113  0.80165360  0.77936224     0.35100
C315        C  0.81888158  0.66305799  0.99966349    -0.26600
C316        C  0.80294727  0.69732207  0.98253355    -0.14700
C317        C  0.82876095  0.72451385  0.96510027     0.36000
C318        C  0.86930920  0.71848798  0.96744681    -0.26100
C319        C  0.88547325  0.68549479  0.98642306    -0.15300
C320        C  0.85986622  0.65688872  0.00194162     0.37000
N321        N  0.87534177  0.62242719  0.02105962    -0.89500
H322        H  0.79943529  0.64177815  0.01282646     0.18100
H323        H  0.88835674  0.74022024  0.95437859     0.18100
N324        N  0.81408692  0.75843892  0.94469845    -0.88600
H325        H  0.85262922  0.60411631  0.03019383     0.35500
H326        H  0.88986009  0.63150988  0.04650786     0.40600
H327        H  0.82437558  0.75754395  0.91584087     0.40200
H328        H  0.82559907  0.78338781  0.95816352     0.35100
C329        C  0.71778288  0.81958973  0.96154564    -0.26600
C330        C  0.69676245  0.79480877  0.98670952    -0.14700
C331        C  0.66708560  0.81116681  0.01048419     0.36000
C332        C  0.66134554  0.85216356  0.01103243    -0.26100
C333        C  0.68490305  0.87701648  0.98828343    -0.15300
C334        C  0.71215435  0.86015587  0.96192742     0.37000
N335        N  0.73423320  0.88336319  0.93476472    -0.89500
H336        H  0.73961932  0.80741999  0.94193945     0.18100
H337        H  0.63990783  0.86466521  0.03085537     0.18100
N338        N  0.64410446  0.78662939  0.03551549    -0.88600
H339        H  0.75350508  0.90136919  0.95016220     0.35500
H340        H  0.71474281  0.90082565  0.91848302     0.40600
H341        H  0.61459423  0.79088358  0.02816765     0.40200
H342        H  0.64815082  0.79586710  0.06447218     0.35100
C343        C  0.81471757  0.99006532  0.33301995    -0.26600
C344        C  0.79800715  0.00309617  0.29745748    -0.14700
C345        C  0.82260336  0.01968755  0.26872963     0.36000
C346        C  0.86310762  0.02103735  0.27500272    -0.26100
C347        C  0.88030715  0.00649699  0.30970896    -0.15300
C348        C  0.85562021  0.99163763  0.33955453     0.37000
N349        N  0.87202608  0.97669541  0.37558662    -0.89500
H350        H  0.79597368  0.97749333  0.35530697     0.18100
H351        H  0.88127854  0.03347380  0.25214570     0.18100
N352        N  0.80660562  0.03558741  0.23304952    -0.88600
H353        H  0.85014197  0.96449130  0.39313352     0.35500
H354        H  0.88296926  0.00060347  0.39121633     0.40600
H355        H  0.81936203  0.02073829  0.20947379     0.40200
H356        H  0.81456034  0.06510914  0.23115551     0.35100
C357        C  0.71565405  0.95628474  0.17860838    -0.26600
C358        C  0.69292122  0.98108121  0.20218522    -0.14700
C359        C  0.66254451  0.00372944  0.18485099     0.36000
C360        C  0.65772079  0.00326464  0.14371889    -0.26100
C361        C  0.68260251  0.98059935  0.12004090    -0.15300
C362        C  0.71053776  0.95560535  0.13788825     0.37000
N363        N  0.73413088  0.92975840  0.11461212    -0.89500
H364        H  0.73841329  0.93814068  0.19178672     0.18100
H365        H  0.63600325  0.02223080  0.12999213     0.18100
N366        N  0.63866291  0.02911532  0.20855663    -0.88600
H367        H  0.72929926  0.90103092  0.12424555     0.35500
H368        H  0.76358619  0.93639399  0.11972853     0.40600
H369        H  0.62111770  0.01129092  0.22618431     0.40200
H370        H  0.61943459  0.04551913  0.19092241     0.35100
C371        C  0.98017069  0.82278230  0.32559759    -0.26600
C372        C  0.00318573  0.80700256  0.29528248    -0.14700
C373        C  0.02756255  0.83237939  0.27336595     0.36000
C374        C  0.02703018  0.87255240  0.28088812    -0.26100
C375        C  0.00270629  0.88866036  0.30978838    -0.15300
C376        C  0.97949707  0.86331759  0.33291557     0.37000
N377        N  0.95370370  0.87796569  0.36260442    -0.89500
H378        H  0.96150185  0.80369957  0.34273288     0.18100
H379        H  0.04551165  0.89154951  0.26341983     0.18100
N380        N  0.05383066  0.81832023  0.24376609    -0.88600
H381        H  0.93451910  0.89838000  0.34974919     0.35500
H382        H  0.97045001  0.89212593  0.38396032     0.40600
H383        H  0.03764893  0.80719271  0.22029358     0.40200
H384        H  0.07139244  0.79605080  0.25582232     0.35100
C385        C  0.97392407  0.72738097  0.17152188    -0.26600
C386        C  0.99648573  0.70338665  0.19650408    -0.14700
C387        C  0.01712895  0.67109034  0.18057018     0.36000
C388        C  0.01544224  0.66424561  0.13973315    -0.26100
C389        C  0.99414218  0.68946610  0.11470313    -0.15300
C390        C  0.97225276  0.72065625  0.13102029     0.37000
N391        N  0.94848751  0.74560225  0.10628495    -0.89500
H392        H  0.95753925  0.75178572  0.18369404     0.18100
H393        H  0.03235888  0.64040747  0.12719671     0.18100
N394        N  0.04099328  0.64647942  0.20547221    -0.88600
H395        H  0.93451376  0.76734443  0.12279376     0.35500
H396        H  0.92636202  0.72828808  0.09416955     0.40600
H397        H  0.06377767  0.66369168  0.21645359     0.40200
H398        H  0.05412255  0.62406919  0.18917391     0.35100
C399        C  0.02186493  0.18372474  0.28176003    -0.26600
C400        C  0.99739330  0.20678253  0.30549472    -0.14700
C401        C  0.97648990  0.18864928  0.33635613     0.36000
C402        C  0.97840529  0.14740041  0.34066434    -0.26100
C403        C  0.00075003  0.12443549  0.31475893    -0.15300
C404        C  0.02372463  0.14307652  0.28607897     0.37000
N405        N  0.04894348  0.12070606  0.26096149    -0.89500
H406        H  0.03903284  0.19723648  0.25871709     0.18100
H407        H  0.96111506  0.13304846  0.36306567     0.18100
N408        N  0.95183060  0.21160949  0.36164357    -0.88600
H409        H  0.07760315  0.13074139  0.26473554     0.35500
H410        H  0.04060499  0.12614667  0.23186083     0.40600
H411        H  0.97010702  0.22926693  0.37868439     0.40200
H412        H  0.93695786  0.19345416  0.38132376     0.35100
C413        C  0.00086156  0.34141441  0.13995517    -0.26600
C414        C  0.99227634  0.30897843  0.11593465    -0.14700
C415        C  0.98131271  0.27335841  0.13401645     0.36000
C416        C  0.98061950  0.27034487  0.17483530    -0.26100
C417        C  0.99040571  0.30208190  0.19904551    -0.15300
C418        C  0.00010000  0.33823652  0.18129091     0.37000
N419        N  0.01024944  0.37138367  0.20484698    -0.89500
H420        H  0.00915806  0.36907948  0.12671082     0.18100
H421        H  0.97219888  0.24246498  0.18755305     0.18100
N422        N  0.97043564  0.23987848  0.11118624    -0.88600
H423        H  0.99095265  0.39433662  0.19781747     0.35500
H424        H  0.03854342  0.38011271  0.19721246     0.40600
H425        H  0.94193078  0.23192069  0.11891391     0.40200
H426        H  0.98925552  0.21664418  0.11860579     0.35100
C427        C  0.99231813  0.33626893  0.81375431    -0.26600
C428        C  0.01363699  0.30488136  0.79754278    -0.14700
C429        C  0.03631877  0.28059947  0.82289606     0.36000
C430        C  0.03515565  0.28656134  0.86335902    -0.26100
C431        C  0.01175213  0.31610759  0.87989493    -0.15300
C432        C  0.99100891  0.34203874  0.85457508     0.37000
N433        N  0.96682049  0.37307402  0.86938325    -0.89500
H434        H  0.97489602  0.35517989  0.79479696     0.18100
H435        H  0.05204722  0.26704811  0.88221897     0.18100
N436        N  0.06114267  0.24973935  0.80860288    -0.88600
H437        H  0.98448978  0.39244302  0.88511732     0.35500
H438        H  0.94607055  0.36101842  0.88836496     0.40600
H439        H  0.07938022  0.26113266  0.78682351     0.40200
H440        H  0.04397850  0.22739574  0.79684909     0.35100
C441        C  0.97936307  0.13822497  0.72295142    -0.26600
C442        C  0.99740727  0.12167845  0.68994749    -0.14700
C443        C  0.01133610  0.14677301  0.65996552     0.36000
C444        C  0.00869519  0.18789792  0.66486074    -0.26100
C445        C  0.99260243  0.20415806  0.69912584    -0.15300
C446        C  0.97639238  0.17888122  0.72769239     0.37000
N447        N  0.95716532  0.19462690  0.76176137    -0.89500
H448        H  0.96738455  0.11923254  0.74543543     0.18100
H449        H  0.02099834  0.20719757  0.64284111     0.18100
N450        N  0.02923500  0.13062256  0.62544275    -0.88600
H451        H  0.94725580  0.17215208  0.78012102     0.35500
H452        H  0.93229894  0.20997397  0.75206333     0.40600
H453        H  0.05503705  0.11630957  0.63421852     0.40200
H454        H  0.03752270  0.15301711  0.60618139     0.35100
C455        C  0.86855014  0.27508472  0.96921204    -0.26600
C456        C  0.88378959  0.30801655  0.98852397    -0.14700
C457        C  0.85753310  0.33491199  0.00592941     0.36000
C458        C  0.81688682  0.32765442  0.00487553    -0.26100
C459        C  0.80199208  0.29365982  0.98708381    -0.15300
C460        C  0.82814497  0.26774554  0.96806970     0.37000
N461        N  0.81357773  0.23395498  0.94762690    -0.89500
H462        H  0.88838074  0.25462492  0.95509143     0.18100
H463        H  0.79710352  0.34779988  0.01949845     0.18100
N464        N  0.87200390  0.36857050  0.02625615    -0.88600
H465        H  0.83661054  0.21773314  0.93547297     0.35500
H466        H  0.79644126  0.24408554  0.92412576     0.40600
H467        H  0.86253149  0.36699267  0.05537237     0.40200
H468        H  0.85939231  0.39356858  0.01341835     0.35100
C469        C  0.66219632  0.13576545  0.98988059    -0.26600
C470        C  0.68812722  0.11218253  0.01195520    -0.14700
C471        C  0.71891541  0.13023396  0.03294680     0.36000
C472        C  0.72492280  0.17078159  0.02897333    -0.26100
C473        C  0.70038875  0.19407726  0.00519448    -0.15300
C474        C  0.66815216  0.17648474  0.98624376     0.37000
N475        N  0.64270841  0.19937147  0.96153725    -0.89500
H476        H  0.63846797  0.12230371  0.97366056     0.18100
H477        H  0.74922776  0.18426568  0.04429282     0.18100
N478        N  0.74425088  0.10722122  0.05796531    -0.88600
H479        H  0.61412022  0.19651467  0.97206081     0.35500
H480        H  0.64362248  0.18755310  0.93327080     0.40600
H481        H  0.72711459  0.09595200  0.08070550     0.40200
H482        H  0.76551146  0.12486784  0.07110861     0.35100
C483        C  0.18367729  0.99576791  0.33387684    -0.26600
C484        C  0.19887525  0.01883649  0.30322109    -0.14700
C485        C  0.17283786  0.04136271  0.27982235     0.36000
C486        C  0.13234328  0.03801333  0.28539777    -0.26100
C487        C  0.11684918  0.01326585  0.31434784    -0.15300
C488        C  0.14274789  0.99266137  0.33963726     0.37000
N489        N  0.12752577  0.96749729  0.36981186    -0.89500
H490        H  0.20359587  0.97854337  0.35194127     0.18100
H491        H  0.11258431  0.05468619  0.26662459     0.18100
N492        N  0.18766522  0.06732489  0.25005409    -0.88600
H493        H  0.15043006  0.95450748  0.38579488     0.35500
H494        H  0.11250826  0.94468349  0.35603206     0.40600
H495        H  0.20375990  0.08915007  0.26420566     0.40200
H496        H  0.16470191  0.08155701  0.23524728     0.35100
C497        C  0.33347383  0.01909217  0.13911878    -0.26600
C498        C  0.30274708  0.00450139  0.11580081    -0.14700
C499        C  0.26885081  0.99022814  0.13455563     0.36000
C500        C  0.26574509  0.99191821  0.17542190    -0.26100
C501        C  0.29579421  0.00740859  0.19892685    -0.15300
C502        C  0.33035746  0.02081031  0.18028459     0.37000
N503        N  0.36213639  0.03750653  0.20196016    -0.89500
H504        H  0.35979908  0.03000489  0.12525879     0.18100
H505        H  0.23924112  0.98084347  0.18882486     0.18100
N506        N  0.23751266  0.97324942  0.11236215    -0.88600
H507        H  0.37352486  0.01618320  0.22102446     0.35500
H508        H  0.35137624  0.06106336  0.21837080     0.40600
H509        H  0.21188359  0.98917320  0.11811271     0.40200
H510        H  0.23347263  0.94449628  0.12229494     0.35100
C511        C  0.28484656  0.95988514  0.86414710    -0.26600
C512        C  0.31372677  0.98400812  0.88047024    -0.14700
C513        C  0.34009352  0.00364842  0.85542396     0.36000
C514        C  0.33518599  0.00072085  0.81440262    -0.26100
C515        C  0.30425125  0.97892453  0.79827522    -0.15300
C516        C  0.28007543  0.95676005  0.82344483     0.37000
N517        N  0.25019512  0.93173319  0.80756772    -0.89500
H518        H  0.26531760  0.94389503  0.88337207     0.18100
H519        H  0.35397693  0.01748775  0.79512663     0.18100
N520        N  0.37033423  0.02799598  0.87156591    -0.88600
H521        H  0.23474529  0.91777347  0.83003201     0.35500
H522        H  0.26422904  0.90963942  0.79158405     0.40600
H523        H  0.35666907  0.05145484  0.88585993     0.40200
H524        H  0.38727279  0.04017507  0.84915027     0.35100
C525        C  0.17735596  0.96943552  0.72297130    -0.26600
C526        C  0.20189703  0.99192650  0.69883299    -0.14700
C527        C  0.18481469  0.01542594  0.66887605     0.36000
C528        C  0.14356792  0.01666207  0.66475291    -0.26100
C529        C  0.11934879  0.99584816  0.69067114    -0.15300
C530        C  0.13662754  0.97135232  0.71935685     0.37000
N531        N  0.11282918  0.94808653  0.74493023    -0.89500
H532        H  0.18978309  0.95052646  0.74551251     0.18100
H533        H  0.13025858  0.03534923  0.64254358     0.18100
N534        N  0.20902305  0.03905462  0.64387360    -0.88600
H535        H  0.11930154  0.95585460  0.77389676     0.35500
H536        H  0.12064451  0.91862264  0.74119810     0.40600
H537        H  0.22225189  0.06033814  0.66143489     0.40200
H538        H  0.19186744  0.05420784  0.62323838     0.35100
C539        C  0.27435851  0.82201463  0.03453675    -0.26600
C540        C  0.30208602  0.79736263  0.01653435    -0.14700
C541        C  0.33474009  0.81474716  0.99775564     0.36000
C542        C  0.33767567  0.85587218  0.99584064    -0.26100
C543        C  0.30855524  0.88024437  0.01198012    -0.15300
C544        C  0.27723891  0.86289362  0.03243147     0.37000
N545        N  0.24818959  0.88670432  0.05133752    -0.89500
H546        H  0.24959818  0.80951231  0.04988097     0.18100
H547        H  0.36205665  0.86880426  0.98025919     0.18100
N548        N  0.36436560  0.79172752  0.97886026    -0.88600
H549        H  0.24805539  0.87945586  0.08119033     0.35500
H550        H  0.22078650  0.87961204  0.03958896     0.40600
H551        H  0.35101654  0.77395168  0.95780946     0.40200
H552        H  0.37812193  0.77398235  0.99993877     0.35100
C553        C  0.18796953  0.66515234  0.98962097    -0.26600
C554        C  0.20305122  0.69471448  0.01399210    -0.14700
C555        C  0.17694080  0.71704294  0.03720412     0.36000
C556        C  0.13649751  0.71122121  0.03367474    -0.26100
C557        C  0.12119858  0.68312386  0.00807064    -0.15300
C558        C  0.14710142  0.65930449  0.98618875     0.37000
N559        N  0.13187660  0.63065770  0.95939566    -0.89500
H560        H  0.20791760  0.64802475  0.97178412     0.18100
H561        H  0.11660589  0.72907166  0.05089869     0.18100
N562        N  0.19160147  0.74586144  0.06418720    -0.88600
H563        H  0.15478521  0.61574459  0.94548362     0.35500
H564        H  0.11641691  0.64572568  0.93739681     0.40600
H565        H  0.20790990  0.73099540  0.08569206     0.40200
H566        H  0.16858463  0.76000879  0.07869902     0.35100
C567        C  0.27715979  0.17636915  0.96305773    -0.26600
C568        C  0.30114621  0.19893904  0.98762906    -0.14700
C569        C  0.33081416  0.17999968  0.00987416     0.36000
C570        C  0.33409464  0.13868257  0.00881388    -0.26100
C571        C  0.30838837  0.11598314  0.98602796    -0.15300
C572        C  0.28051929  0.13548365  0.96180979     0.37000
N573        N  0.25554178  0.11476675  0.93517500    -0.89500
H574        H  0.25488565  0.19064828  0.94515151     0.18100
H575        H  0.35575395  0.12404034  0.02714357     0.18100
N576        N  0.35587689  0.20236655  0.03521820    -0.88600
H577        H  0.23622647  0.09728322  0.95111663     0.35500
H578        H  0.27294573  0.09693895  0.91729469     0.40600
H579        H  0.37409451  0.21925334  0.01736274     0.40200
H580        H  0.37440103  0.18375344  0.05135416     0.35100
C581        C  0.18496747  0.33468489  0.98693216    -0.26600
C582        C  0.20150351  0.30127401  0.00505457    -0.14700
C583        C  0.17714388  0.27629417  0.02725830     0.36000
C584        C  0.13661028  0.28319166  0.02793624    -0.26100
C585        C  0.11958521  0.31482414  0.00745814    -0.15300
C586        C  0.14415655  0.34157277  0.98787963     0.37000
N587        N  0.12769821  0.37441198  0.96714220    -0.89500
H588        H  0.20343695  0.35436280  0.97027074     0.18100
H589        H  0.11798041  0.26309168  0.04391556     0.18100
N590        N  0.19361188  0.24366561  0.04873469    -0.88600
H591        H  0.13569156  0.37212094  0.93763390     0.35500
H592        H  0.14026169  0.39992396  0.97840050     0.40600
H593        H  0.17170208  0.22801499  0.06324326     0.40200
H594        H  0.21194403  0.25506445  0.07049170     0.35100
C595        C  0.97563543  0.63787963  0.59825975    -0.26600
C596        C  0.00362506  0.60751497  0.59911945    -0.14700
C597        C  0.03254212  0.60701550  0.62862789     0.36000
C598        C  0.03225357  0.63596690  0.65766860    -0.26100
C599        C  0.00419619  0.66624373  0.65706410    -0.15300
C600        C  0.97582740  0.66759303  0.62679494     0.37000
N601        N  0.94638782  0.69797112  0.62610251    -0.89500
H602        H  0.95350872  0.63817732  0.57534375     0.18100
H603        H  0.05429517  0.63497779  0.68066479     0.24700
N604        N  0.06231165  0.57719380  0.62898056    -0.88600
H605        H  0.92639103  0.69321265  0.60330044     0.35500
H606        H  0.96034815  0.72438116  0.61952286     0.40600
H607        H  0.06079321  0.56225512  0.65579255     0.40200
H608        H  0.08957025  0.59095105  0.62749152     0.35100
C609        C  0.02635780  0.40147185  0.62579441    -0.26600
C610        C  0.99475787  0.40302599  0.59930091    -0.14700
C611        C  0.96460254  0.37491278  0.60259114     0.36000
C612        C  0.96714446  0.34549191  0.63142354    -0.26100
C613        C  0.99867270  0.34406339  0.65801099    -0.15300
C614        C  0.02855947  0.37239482  0.65520780     0.37000
N615        N  0.06131827  0.37114675  0.68186754    -0.89500
H616        H  0.04944520  0.42302330  0.62335668     0.18100
H617        H  0.94383114  0.32416284  0.63371627     0.18100
N618        N  0.93049980  0.37635900  0.57793454    -0.88600
H619        H  0.08064545  0.39410351  0.67599196     0.35500
H620        H  0.07674520  0.34508329  0.67667811     0.40600
H621        H  0.91733425  0.40396861  0.58092922     0.40200
H622        H  0.93904782  0.37291130  0.54875369     0.35100
C623        C  0.02941900  0.61043943  0.36911767    -0.26600
C624        C  0.99847393  0.60994180  0.39609346    -0.14700
C625        C  0.96901186  0.63936390  0.39388613     0.36000
C626        C  0.97139897  0.66838224  0.36471820    -0.26100
C627        C  0.00196939  0.66846300  0.33730210    -0.15300
C628        C  0.03188165  0.63952499  0.34002672     0.37000
N629        N  0.06549338  0.63908339  0.31460848    -0.89500
H630        H  0.05221447  0.58819715  0.37104737     0.18100
H631        H  0.94854496  0.69057587  0.36283894     0.18100
N632        N  0.93616044  0.64056670  0.42023541    -0.88600
H633        H  0.09041898  0.64192674  0.33230495     0.35500
H634        H  0.06576652  0.66320388  0.29570704     0.40600
H635        H  0.93678210  0.61739787  0.44031460     0.40200
H636        H  0.91074190  0.63693385  0.40342678     0.35100
C637        C  0.01182945  0.37703407  0.33476037    -0.26600
C638        C  0.98356993  0.34745298  0.33698164    -0.14700
C639        C  0.95633060  0.34768876  0.36793650     0.36000
C640        C  0.95792446  0.37736658  0.39634229    -0.26100
C641        C  0.98677158  0.40649939  0.39460113    -0.15300
C642        C  0.01402514  0.40613568  0.36362270     0.37000
N643        N  0.04448527  0.43480863  0.36194250    -0.89500
H644        H  0.03314865  0.37678917  0.31124876     0.18100
H645        H  0.93676652  0.37756925  0.41999392     0.18100
N646        N  0.92666998  0.31822815  0.37019641    -0.88600
H647        H  0.04199340  0.44976875  0.33518383     0.35500
H648        H  0.07144087  0.42003897  0.36231159     0.40600
H649        H  0.89933199  0.33227462  0.36966861     0.40200
H650        H  0.92962280  0.30380224  0.39720085     0.35100
C651        C  0.59915324  0.98607435  0.63489464    -0.26600
C652        C  0.60262553  0.01283831  0.60373375    -0.14700
C653        C  0.63520615  0.03834262  0.60298420     0.36000
C654        C  0.66404703  0.03545870  0.63229461    -0.26100
C655        C  0.66060675  0.00871065  0.66356280    -0.15300
C656        C  0.62731518  0.98413404  0.66516423     0.37000
N657        N  0.62267307  0.95640906  0.69670617    -0.89500
H658        H  0.57413937  0.96664741  0.63561434     0.18100
H659        H  0.68894347  0.05501569  0.63111463     0.18100
N660        N  0.63906626  0.06839486  0.57373539    -0.88600
H661        H  0.59877362  0.93812229  0.69130976     0.35500
H662        H  0.61542703  0.97229619  0.72186299     0.40600
H663        H  0.61379353  0.08589795  0.57414018     0.40200
H664        H  0.64146689  0.05552059  0.54611580     0.35100
C665        C  0.36960057  0.03699625  0.60475512    -0.26600
C666        C  0.39999152  0.00917115  0.60264852    -0.14700
C667        C  0.40131551  0.97775402  0.62964694     0.36000
C668        C  0.37237089  0.97502132  0.65869545    -0.26100
C669        C  0.34155344  0.00241063  0.66044115    -0.15300
C670        C  0.34018477  0.03384300  0.63338388     0.37000
N671        N  0.30925571  0.06259664  0.63540963    -0.89500
H672        H  0.36880822  0.06102237  0.58383111     0.18100
H673        H  0.37321705  0.95081420  0.67941629     0.18100
N674        N  0.43175893  0.94851555  0.62699256    -0.88600
H675        H  0.31250686  0.08375139  0.61337343     0.35500
H676        H  0.31206747  0.07723024  0.66218876     0.40600
H677        H  0.42820624  0.93397198  0.60025058     0.40200
H678        H  0.42858287  0.92736304  0.64904329     0.35100
C679        C  0.59968336  0.97098844  0.37168860    -0.26600
C680        C  0.60215610  0.00018658  0.40041958    -0.14700
C681        C  0.63400402  0.02625652  0.40014912     0.36000
C682        C  0.66304508  0.02260562  0.37135634    -0.26100
C683        C  0.66031862  0.99380612  0.34217464    -0.15300
C684        C  0.62844352  0.96749821  0.34249849     0.37000
N685        N  0.62567887  0.93705959  0.31352758    -0.89500
H686        H  0.57528289  0.95079177  0.37223304     0.18100
H687        H  0.68719451  0.04310711  0.37113668     0.18100
N688        N  0.63645935  0.05689704  0.42869966    -0.88600
H689        H  0.60040679  0.92040914  0.31780364     0.35500
H690        H  0.64951782  0.91804851  0.31774574     0.40600
H691        H  0.66288225  0.05347623  0.44402256     0.40200
H692        H  0.63724049  0.08375158  0.41379200     0.35100
C693        C  0.39503538  0.97781719  0.37149041    -0.26600
C694        C  0.39804862  0.00937724  0.39768329    -0.14700
C695        C  0.37213427  0.04166301  0.39343245     0.36000
C696        C  0.34297512  0.04110270  0.36433559    -0.26100
C697        C  0.33977168  0.00947274  0.33829085    -0.15300
C698        C  0.36649223  0.97771980  0.34170766     0.37000
N699        N  0.36466154  0.94460920  0.31601432    -0.89500
H700        H  0.41499719  0.95308807  0.37428885     0.18100
H701        H  0.32304880  0.06587380  0.36160863     0.18100
N702        N  0.37549189  0.07578629  0.41760062    -0.88600
H703        H  0.36933627  0.95428813  0.28728132     0.35500
H704        H  0.33657501  0.93264020  0.31771824     0.40600
H705        H  0.40382164  0.08688908  0.41454951     0.40200
H706        H  0.37148270  0.06759116  0.44687582     0.35100
C707        C  0.60707764  0.62644476  0.03073133    -0.26600
C708        C  0.60762195  0.59539558  0.00375793    -0.14700
C709        C  0.63781904  0.59352740  0.97553288     0.36000
C710        C  0.66695180  0.62252094  0.97512664    -0.26100
C711        C  0.66577364  0.65409221  0.00139632    -0.15300
C712        C  0.63571884  0.65595420  0.02970587     0.37000
N713        N  0.63460860  0.68760674  0.05746103    -0.89500
H714        H  0.58404431  0.62768526  0.05251512     0.18100
H715        H  0.68988353  0.62129344  0.95323191     0.18100
N716        N  0.63839028  0.56251772  0.94703747    -0.88600
H717        H  0.65972642  0.68532166  0.07502595     0.35500
H718        H  0.61059293  0.68473063  0.07621000     0.40600
H719        H  0.66257350  0.56525313  0.92849264     0.40200
H720        H  0.61341058  0.56573486  0.92940806     0.35100
C721        C  0.63211808  0.33125702  0.01877335    -0.26600
C722        C  0.66227399  0.33335956  0.99095584    -0.14700
C723        C  0.66273204  0.36494233  0.96411898     0.36000
C724        C  0.63323602  0.39387299  0.96565617    -0.26100
C725        C  0.60340258  0.39201267  0.99388424    -0.15300
C726        C  0.60311548  0.36036697  0.02084124     0.37000
N727        N  0.57462477  0.35782700  0.05152984    -0.89500
H728        H  0.63167845  0.30732265  0.03981176     0.18100
H729        H  0.63370980  0.41803570  0.94488506     0.18100
N730        N  0.69257233  0.36727717  0.93476501    -0.88600
H731        H  0.54675809  0.35546399  0.03903512     0.35500
H732        H  0.57568999  0.38361534  0.06800604     0.40600
H733        H  0.70714952  0.39393648  0.93823525     0.40200
H734        H  0.67890867  0.36757693  0.90723370     0.35100
C735        C  0.34577776  0.63219750  0.97936549    -0.26600
C736        C  0.34370015  0.65771956  0.01150312    -0.14700
C737        C  0.37157446  0.65388562  0.04217365     0.36000
C738        C  0.40045382  0.62450670  0.04029435    -0.26100
C739        C  0.40248001  0.59897489  0.00815057    -0.15300
C740        C  0.37513394  0.60335353  0.97711924     0.37000
N741        N  0.37714806  0.57954082  0.94261542    -0.89500
H742        H  0.32484658  0.63517814  0.95550302     0.18100
H743        H  0.42134568  0.62138938  0.06417290     0.18100
N744        N  0.37052452  0.67862314  0.07605933    -0.88600
H745        H  0.37364859  0.55018251  0.95066748     0.35500
H746        H  0.40494059  0.58280455  0.93023848     0.40600
H747        H  0.34287887  0.67628699  0.08896811     0.40200
H748        H  0.37459240  0.70765163  0.06707917     0.35100
C749        C  0.37258070  0.33414297  0.02214957    -0.26600
C750        C  0.34115794  0.33802421  0.99569655    -0.14700
C751        C  0.33958065  0.37072475  0.97017484     0.36000
C752        C  0.36965516  0.39878424  0.97150714    -0.26100
C753        C  0.40089520  0.39515044  0.99827811    -0.15300
C754        C  0.40198901  0.36256782  0.02415850     0.37000
N755        N  0.43172756  0.35837893  0.05373563    -0.89500
H756        H  0.37370963  0.30933453  0.04214533     0.18100
H757        H  0.36872967  0.42374690  0.95171418     0.18100
N758        N  0.30771789  0.37504476  0.94272672    -0.88600
H759        H  0.45902546  0.35576816  0.04024172     0.35500
H760        H  0.43164866  0.38365452  0.07103000     0.40600
H761        H  0.30942758  0.35171439  0.92294959     0.40200
H762        H  0.31080857  0.40077028  0.92623581     0.35100
loop_ 
_geom_bond_atom_site_label_1 
_geom_bond_atom_site_label_2 
_geom_bond_distance 
_geom_bond_site_symmetry_2 
_ccdc_geom_bond_type 
N1            C6   1.355   1_554  A
N1            C5   1.354       .  A
N1           H33   1.040       .  S
N2            C9   1.351       .  A
N2           C10   1.352       .  A
N3            C8   1.352       .  A
N3            C7   1.352       .  A
N3           H34   1.041   1_556  S
N4           C11   1.350       .  A
N4           C12   1.351       .  A
C5           C13   1.386   1_554  A
C5           C21   1.416       .  A
C6           C22   1.418   1_556  A
C6           C14   1.387       .  A
C7           C15   1.387       .  A
C7           C24   1.414       .  A
C8           C23   1.413       .  A
C8           C16   1.387       .  A
C9           C21   1.413       .  A
C9           C17   1.386       .  A
C10          C24   1.414   1_554  A
C10          C18   1.386       .  A
C11          C19   1.387       .  A
C11          C22   1.413       .  A
C12          C20   1.386       .  A
C12          C23   1.412   1_554  A
C13          C14   1.378       .  A
C13          H25   1.082       .  S
C14          H26   1.082       .  S
C15          C16   1.378       .  A
C15          H27   1.082       .  S
C16          H28   1.082       .  S
C17          C18   1.375       .  A
C17          H29   1.082       .  S
C18          H30   1.082       .  S
C19          C20   1.375       .  A
C19          H31   1.082       .  S
C20          H32   1.082       .  S
C21         C739   1.491       .  S
C22         C708   1.495       .  S
C23         C725   1.490       .  S
C24         C753   1.494       .  S
N35          C40   1.355       .  A
N35          C39   1.351       .  A
N35          H67   1.039   1_545  S
N36          C43   1.351       .  A
N36          C44   1.353       .  A
N37          C42   1.352       .  A
N37          C41   1.354       .  A
N37          H68   1.040   1_545  S
N38          C45   1.351       .  A
N38          C46   1.349   1_545  A
C39          C47   1.387       .  A
C39          C55   1.415       .  A
C40          C56   1.417       .  A
C40          C48   1.387       .  A
C41          C49   1.386       .  A
C41          C58   1.414       .  A
C42          C57   1.415       .  A
C42          C50   1.387       .  A
C43          C55   1.414       .  A
C43          C51   1.388   1_545  A
C44          C58   1.413       .  A
C44          C52   1.385   1_545  A
C45          C53   1.386   1_545  A
C45          C56   1.412       .  A
C46          C54   1.387       .  A
C46          C57   1.411   1_565  A
C47          C48   1.379       .  A
C47          H59   1.082       .  S
C48          H60   1.082       .  S
C49          C50   1.378       .  A
C49          H61   1.082       .  S
C50          H62   1.082       .  S
C51          C52   1.375       .  A
C51          H63   1.082       .  S
C52          H64   1.082       .  S
C53          C54   1.374       .  A
C53          H65   1.082       .  S
C54          H66   1.082       .  S
C55         C666   1.486       .  S
C56         C652   1.496       .  S
C57         C680   1.486       .  S
C58         C694   1.494       .  S
N69          C74   1.353   1_655  A
N69          C73   1.350   1_655  A
N69         H101   1.040       .  S
N70          C77   1.352       .  A
N70          C78   1.353       .  A
N71          C76   1.353       .  A
N71          C75   1.355       .  A
N71         H102   1.040       .  S
N72          C79   1.352       .  A
N72          C80   1.350       .  A
C73          C81   1.388       .  A
C73          C89   1.413       .  A
C74          C90   1.413   1_455  A
C74          C82   1.386       .  A
C75          C83   1.386   1_655  A
C75          C92   1.416       .  A
C76          C91   1.416       .  A
C76          C84   1.388   1_655  A
C77          C89   1.416   1_655  A
C77          C85   1.387       .  A
C78          C92   1.414       .  A
C78          C86   1.385       .  A
C79          C87   1.385       .  A
C79          C90   1.411       .  A
C80          C88   1.387       .  A
C80          C91   1.413       .  A
C81          C82   1.376       .  A
C81          H93   1.082       .  S
C82          H94   1.082       .  S
C83          C84   1.377       .  A
C83          H95   1.082       .  S
C84          H96   1.082       .  S
C85          C86   1.374       .  A
C85          H97   1.082       .  S
C86          H98   1.082       .  S
C87          C88   1.373       .  A
C87          H99   1.082       .  S
C88         H100   1.082       .  S
C89         C596   1.486       .  S
C90         C624   1.488       .  S
C91         C641   1.489       .  S
C92         C610   1.496       .  S
C103        N104   1.363       .  A
C103        N108   1.363       .  A
C103        C750   1.480       .  S
N104        C105   1.360       .  A
C105        N106   1.356       .  A
C105        C568   1.486       .  S
N106        C107   1.357       .  A
C107        N108   1.360       .  A
C107        C582   1.485   1_556  S
C109        N110   1.365       .  A
C109        N114   1.363       .  A
C109        C736   1.479       .  S
N110        C111   1.361       .  A
C111        N112   1.354       .  A
C111        C554   1.485       .  S
N112        C113   1.355       .  A
C113        N114   1.359       .  A
C113        C540   1.489       .  S
C115        N116   1.364       .  A
C115        N120   1.362       .  A
C115        C669   1.475   1_565  S
N116        C117   1.360       .  A
C117        N118   1.354       .  A
C117        C526   1.487       .  S
N118        C119   1.353       .  A
C119        N120   1.357       .  A
C119        C515   1.481       .  S
O121       Ni129   1.906       .  S
O121        C131   1.280       .  A
O122       Ni129   1.907   1_544  S
O122        C132   1.280       .  A
O123       Ni129   1.913   1_545  S
O123        C133   1.280       .  A
O124       Ni129   1.909   1_554  S
O124        C134   1.280       .  A
O125       Ni130   1.933   1_554  S
O125        C134   1.284       .  A
O126       Ni130   1.932   1_545  S
O126        C133   1.284       .  A
O127       Ni130   1.931   1_544  S
O127        C132   1.284       .  A
O128       Ni130   1.929       .  S
O128        C131   1.283       .  A
Ni129      Ni130   2.385       .  S
C131        C512   1.479       .  S
C132        C498   1.488       .  S
C133        C571   1.487       .  S
C134        C543   1.485       .  S
C135        N136   1.365       .  A
C135        N140   1.365       .  A
C135        C697   1.481       .  S
N136        C137   1.361       .  A
C137        N138   1.355       .  A
C137        C501   1.492       .  S
N138        C139   1.354       .  A
C139        N140   1.360       .  A
C139        C484   1.486       .  S
C141        N142   1.362       .  A
C141        N146   1.363       .  A
C141        C722   1.480       .  S
N142        C143   1.358       .  A
C143        N144   1.357       .  A
C143        C473   1.485   1_556  S
N144        C145   1.358       .  A
C145        N146   1.360       .  A
C145        C459   1.486       .  S
C147        N148   1.367       .  A
C147        N152   1.366   1_655  A
C147        C613   1.482       .  S
N148        C149   1.362       .  A
C149        N150   1.352   1_655  A
C149        C445   1.485       .  S
N150        C151   1.350       .  A
C151        N152   1.360       .  A
C151        C428   1.484       .  S
O153       Ni161   1.930       .  S
O153        C163   1.283       .  A
O154       Ni161   1.931   1_654  S
O154        C164   1.283       .  A
O155       Ni161   1.938   1_554  S
O155        C165   1.285       .  A
O156       Ni161   1.937   1_655  S
O156        C166   1.285       .  A
O157       Ni162   1.905   1_655  S
O157        C166   1.279       .  A
O158       Ni162   1.901   1_554  S
O158        C165   1.279       .  A
O159       Ni162   1.904   1_654  S
O159        C164   1.280       .  A
O160       Ni162   1.907       .  S
O160        C163   1.280       .  A
Ni161      Ni162   2.384       .  S
C163        C431   1.484       .  S
C164        C414   1.489       .  S
C165        C585   1.483       .  S
C166        C456   1.487       .  S
C167        N168   1.365       .  A
C167        N172   1.363       .  A
C167        C638   1.472       .  S
N168        C169   1.359       .  A
C169        N170   1.353       .  A
C169        C417   1.488       .  S
N170        C171   1.352       .  A
C171        N172   1.357       .  A
C171        C400   1.483       .  S
C173        N174   1.362       .  A
C173        N178   1.362       .  A
C173        C627   1.475       .  S
N174        C175   1.358   1_455  A
C175        N176   1.356       .  A
C175        C386   1.483       .  S
N176        C177   1.355   1_655  A
C177        N178   1.359       .  A
C177        C372   1.481       .  S
C179        N180   1.364       .  A
C179        N184   1.360       .  A
C179        C683   1.477       .  S
N180        C181   1.361       .  A
C181        N182   1.357       .  A
C181        C344   1.487   1_565  S
N182        C183   1.355       .  A
C183        N184   1.354       .  A
C183        C358   1.476       .  S
O185       Ni193   1.909       .  S
O185        C195   1.281       .  A
O186       Ni193   1.906   1_455  S
O186        C196   1.280       .  A
O187       Ni193   1.905   1_465  S
O187        C197   1.280       .  A
O188       Ni193   1.901       .  S
O188        C198   1.279       .  A
O189       Ni194   1.930       .  S
O189        C198   1.283       .  A
O190       Ni194   1.927   1_565  S
O190        C197   1.282   1_655  A
O191       Ni194   1.937   1_455  S
O191        C196   1.285       .  A
O192       Ni194   1.932       .  S
O192        C195   1.284       .  A
Ni193      Ni194   2.386       .  S
C195        C347   1.491       .  S
C196        C487   1.485       .  S
C197        C375   1.478       .  S
C198        C403   1.477   1_655  S
C199        N200   1.364       .  A
C199        N204   1.362       .  A
C199        C711   1.480   1_556  S
N200        C201   1.361       .  A
C201        N202   1.356       .  A
C201        C316   1.493       .  S
N202        C203   1.356       .  A
C203        N204   1.358       .  A
C203        C330   1.485       .  S
C205        N206   1.360       .  A
C205        N210   1.361       .  A
C205        C599   1.473       .  S
N206        C207   1.356       .  A
C207        N208   1.356       .  A
C207        C288   1.478       .  S
N208        C209   1.356       .  A
C209        N210   1.360       .  A
C209        C302   1.484       .  S
C211        N212   1.368       .  A
C211        N216   1.363       .  A
C211        C655   1.488       .  S
N212        C213   1.363       .  A
C213        N214   1.352       .  A
C213        C263   1.487       .  S
N214        C215   1.351       .  A
C215        N216   1.357       .  A
C215        C274   1.482   1_545  S
O217       Ni225   1.927   1_556  S
O217        C227   1.282       .  A
O218       Ni225   1.929       .  S
O218        C228   1.283       .  A
O219       Ni225   1.935   1_545  S
O219        C229   1.285       .  A
O220       Ni225   1.935   1_556  S
O220        C230   1.284       .  A
O221       Ni226   1.901   1_556  S
O221        C230   1.277       .  A
O222       Ni226   1.907   1_545  S
O222        C229   1.279       .  A
O223       Ni226   1.903       .  S
O223        C228   1.279       .  A
O224       Ni226   1.903   1_556  S
O224        C227   1.280       .  A
Ni225      Ni226   2.387       .  S
C227        C277   1.481       .  S
C228        C361   1.476       .  S
C229        C470   1.485       .  S
C230        C333   1.479       .  S
O231       Ni239   1.931   1_655  S
O231        C241   1.283       .  A
O232       Ni239   1.931       .  S
O232        C242   1.283       .  A
O233       Ni239   1.929   1_565  S
O233        C243   1.283       .  A
O234       Ni239   1.929       .  S
O234        C244   1.283       .  A
O235       Ni240   1.907       .  S
O235        C244   1.281       .  A
O236       Ni240   1.908   1_565  S
O236        C243   1.280       .  A
O237       Ni240   1.905       .  S
O237        C242   1.279       .  A
O238       Ni240   1.908   1_655  S
O238        C241   1.281       .  A
Ni239      Ni240   2.386       .  S
C241        C260   1.488       .  S
C242        C529   1.479   1_545  S
C243        C305   1.481       .  S
C244        C442   1.486   1_455  S
O245       Ni253   1.934   1_655  S
O245        C255   1.284       .  A
O246       Ni253   1.932   1_554  S
O246        C256   1.283       .  A
O247       Ni253   1.935   1_654  S
O247        C257   1.284       .  A
O248       Ni253   1.930       .  S
O248        C258   1.283       .  A
O249       Ni254   1.901       .  S
O249        C258   1.278       .  A
O250       Ni254   1.901   1_654  S
O250        C257   1.278       .  A
O251       Ni254   1.908   1_554  S
O251        C256   1.280       .  A
O252       Ni254   1.909   1_655  S
O252        C255   1.281       .  A
Ni253      Ni254   2.387       .  S
C255        C319   1.490       .  S
C256        C557   1.480       .  S
C257        C389   1.482       .  S
C258        C291   1.474       .  S
C259        C260   1.403       .  A
C259        C264   1.397       .  A
C259        H266   1.084       .  S
C260        C261   1.416   1_545  A
C261        C262   1.415       .  A
C261        N268   1.437       .  S
C262        C263   1.406   1_565  A
C262        H267   1.083       .  S
C263        C264   1.412       .  A
C264        N265   1.434       .  S
N265        H269   1.046       .  S
N265        H270   1.046       .  S
N268        H271   1.045       .  S
N268        H272   1.046       .  S
C273        C274   1.406   1_545  A
C273        C278   1.412       .  A
C273        H280   1.083       .  S
C274        C275   1.413       .  A
C275        C276   1.397       .  A
C275        N282   1.439       .  S
C276        C277   1.402       .  A
C276        H281   1.084       .  S
C277        C278   1.413   1_565  A
C278        N279   1.437       .  S
N279        H283   1.046       .  S
N279        H284   1.046       .  S
N282        H285   1.046       .  S
N282        H286   1.046       .  S
C287        C288   1.402       .  A
C287        C292   1.397       .  A
C287        H294   1.084       .  S
C288        C289   1.421   1_455  A
C289        C290   1.406       .  A
C289        N296   1.439       .  S
C290        C291   1.402   1_655  A
C290        H295   1.084       .  S
C291        C292   1.415       .  A
C292        N293   1.440       .  S
N293        H297   1.046       .  S
N293        H298   1.043       .  S
N296        H299   1.041       .  S
N296        H300   1.046       .  S
C301        C302   1.407   1_655  A
C301        C306   1.404       .  A
C301        H308   1.084       .  S
C302        C303   1.418       .  A
C303        C304   1.395       .  A
C303        N310   1.433       .  S
C304        C305   1.402       .  A
C304        H309   1.084       .  S
C305        C306   1.414   1_455  A
C306        N307   1.432       .  S
N307        H311   1.045       .  S
N307        H312   1.046       .  S
N310        H313   1.046       .  S
N310        H314   1.044       .  S
C315        C316   1.408       .  A
C315        C320   1.414   1_556  A
C315        H322   1.083   1_556  S
C316        C317   1.413       .  A
C317        C318   1.399       .  A
C317        N324   1.433       .  S
C318        C319   1.403       .  A
C318        H323   1.084       .  S
C319        C320   1.416   1_556  A
C320        N321   1.437       .  S
N321        H325   1.046       .  S
N321        H326   1.046       .  S
N324        H327   1.046       .  S
N324        H328   1.046       .  S
C329        C330   1.403       .  A
C329        C334   1.395       .  A
C329        H336   1.084       .  S
C330        C331   1.412   1_556  A
C331        C332   1.410       .  A
C331        N338   1.432       .  S
C332        C333   1.404   1_554  A
C332        H337   1.084       .  S
C333        C334   1.416       .  A
C334        N335   1.434       .  S
N335        H339   1.044       .  S
N335        H340   1.046       .  S
N338        H341   1.046       .  S
N338        H342   1.045       .  S
C343        C344   1.406   1_565  A
C343        C348   1.414       .  A
C343        H350   1.083       .  S
C344        C345   1.411       .  A
C345        C346   1.399       .  A
C345        N352   1.433       .  S
C346        C347   1.405       .  A
C346        H351   1.084       .  S
C347        C348   1.417   1_545  A
C348        N349   1.437       .  S
N349        H353   1.046       .  S
N349        H354   1.045   1_565  S
N352        H355   1.046       .  S
N352        H356   1.046       .  S
C357        C358   1.401       .  A
C357        C362   1.398       .  A
C357        H364   1.084       .  S
C358        C359   1.414   1_565  A
C359        C360   1.410       .  A
C359        N366   1.437       .  S
C360        C361   1.403   1_545  A
C360        H365   1.084       .  S
C361        C362   1.409       .  A
C362        N363   1.433       .  S
N363        H367   1.046       .  S
N363        H368   1.046       .  S
N366        H369   1.045       .  S
N366        H370   1.046       .  S
C371        C372   1.406   1_655  A
C371        C376   1.405       .  A
C371        H378   1.084       .  S
C372        C373   1.416       .  A
C373        C374   1.394       .  A
C373        N380   1.433       .  S
C374        C375   1.401       .  A
C374        H379   1.084       .  S
C375        C376   1.415   1_455  A
C376        N377   1.432       .  S
N377        H381   1.046       .  S
N377        H382   1.045       .  S
N380        H383   1.044       .  S
N380        H384   1.046       .  S
C385        C386   1.402       .  A
C385        C390   1.400       .  A
C385        H392   1.084       .  S
C386        C387   1.414   1_655  A
C387        C388   1.412       .  A
C387        N394   1.437       .  S
C388        C389   1.405   1_455  A
C388        H393   1.084       .  S
C389        C390   1.412       .  A
C390        N391   1.439       .  S
N391        H395   1.046       .  S
N391        H396   1.046       .  S
N394        H397   1.046       .  S
N394        H398   1.045       .  S
C399        C400   1.404   1_455  A
C399        C404   1.394       .  A
C399        H406   1.084       .  S
C400        C401   1.415       .  A
C401        C402   1.414       .  A
C401        N408   1.437       .  S
C402        C403   1.405   1_655  A
C402        H407   1.083       .  S
C403        C404   1.407       .  A
C404        N405   1.434       .  S
N405        H409   1.046       .  S
N405        H410   1.046       .  S
N408        H411   1.045       .  S
N408        H412   1.046       .  S
C413        C414   1.410   1_455  A
C413        C418   1.412       .  A
C413        H420   1.083       .  S
C414        C415   1.412       .  A
C415        C416   1.394       .  A
C415        N422   1.433       .  S
C416        C417   1.404       .  A
C416        H421   1.084       .  S
C417        C418   1.412   1_655  A
C418        N419   1.432       .  S
N419        H423   1.046   1_455  S
N419        H424   1.045       .  S
N422        H425   1.046       .  S
N422        H426   1.046       .  S
C427        C428   1.406   1_655  A
C427        C432   1.406       .  A
C427        H434   1.084       .  S
C428        C429   1.418       .  A
C429        C430   1.395       .  A
C429        N436   1.434       .  S
C430        C431   1.402       .  A
C430        H435   1.084       .  S
C431        C432   1.417   1_455  A
C432        N433   1.432       .  S
N433        H437   1.045       .  S
N433        H438   1.046       .  S
N436        H439   1.045       .  S
N436        H440   1.044       .  S
C441        C442   1.402       .  A
C441        C446   1.399       .  A
C441        H448   1.084       .  S
C442        C443   1.415   1_655  A
C443        C444   1.414       .  A
C443        N450   1.437       .  S
C444        C445   1.406   1_455  A
C444        H449   1.083       .  S
C445        C446   1.414       .  A
C446        N447   1.439       .  S
N447        H451   1.046       .  S
N447        H452   1.045       .  S
N450        H453   1.046       .  S
N450        H454   1.046       .  S
C455        C456   1.405       .  A
C455        C460   1.403       .  A
C455        H462   1.084       .  S
C456        C457   1.411   1_556  A
C457        C458   1.411       .  A
C457        N464   1.432       .  S
C458        C459   1.407   1_554  A
C458        H463   1.084       .  S
C459        C460   1.412       .  A
C460        N461   1.438       .  S
N461        H465   1.046       .  S
N461        H466   1.046       .  S
N464        H467   1.046       .  S
N464        H468   1.045       .  S
C469        C470   1.405   1_556  A
C469        C474   1.409       .  A
C469        H476   1.084       .  S
C470        C471   1.414       .  A
C471        C472   1.404       .  A
C471        N478   1.438       .  S
C472        C473   1.403       .  A
C472        H477   1.084       .  S
C473        C474   1.411   1_554  A
C474        N475   1.432       .  S
N475        H479   1.045       .  S
N475        H480   1.046       .  S
N478        H481   1.046       .  S
N478        H482   1.046       .  S
C483        C484   1.407   1_565  A
C483        C488   1.415       .  A
C483        H490   1.083       .  S
C484        C485   1.412       .  A
C485        C486   1.401       .  A
C485        N492   1.439       .  S
C486        C487   1.402       .  A
C486        H491   1.084       .  S
C487        C488   1.413   1_545  A
C488        N489   1.437       .  S
N489        H493   1.046       .  S
N489        H494   1.046       .  S
N492        H495   1.046       .  S
N492        H496   1.046       .  S
C497        C498   1.407       .  A
C497        C502   1.408       .  A
C497        H504   1.084       .  S
C498        C499   1.412   1_545  A
C499        C500   1.398       .  A
C499        N506   1.433       .  S
C500        C501   1.405   1_565  A
C500        H505   1.084       .  S
C501        C502   1.419       .  A
C502        N503   1.432       .  S
N503        H507   1.045       .  S
N503        H508   1.045       .  S
N506        H509   1.046       .  S
N506        H510   1.046       .  S
C511        C512   1.402       .  A
C511        C516   1.400       .  A
C511        H518   1.084       .  S
C512        C513   1.412   1_565  A
C513        C514   1.411       .  A
C513        N520   1.437       .  S
C514        C515   1.406   1_545  A
C514        H519   1.083       .  S
C515        C516   1.412       .  A
C516        N517   1.439       .  S
N517        H521   1.046       .  S
N517        H522   1.046       .  S
N520        H523   1.046       .  S
N520        H524   1.046       .  S
C525        C526   1.405       .  A
C525        C530   1.396       .  A
C525        H532   1.084       .  S
C526        C527   1.416   1_565  A
C527        C528   1.414       .  A
C527        N534   1.437       .  S
C528        C529   1.405   1_545  A
C528        H533   1.083       .  S
C529        C530   1.408       .  A
C530        N531   1.434       .  S
N531        H535   1.046       .  S
N531        H536   1.046       .  S
N534        H537   1.046       .  S
N534        H538   1.046       .  S
C539        C540   1.405       .  A
C539        C544   1.399       .  A
C539        H546   1.084       .  S
C540        C541   1.419   1_554  A
C541        C542   1.407       .  A
C541        N548   1.432       .  S
C542        C543   1.406   1_556  A
C542        H547   1.084       .  S
C543        C544   1.410       .  A
C544        N545   1.433       .  S
N545        H549   1.046       .  S
N545        H550   1.046       .  S
N548        H551   1.045       .  S
N548        H552   1.045       .  S
C553        C554   1.407   1_556  A
C553        C558   1.414       .  A
C553        H560   1.083       .  S
C554        C555   1.414       .  A
C555        C556   1.400       .  A
C555        N562   1.439       .  S
C556        C557   1.400       .  A
C556        H561   1.084       .  S
C557        C558   1.413   1_554  A
C558        N559   1.437       .  S
N559        H563   1.046       .  S
N559        H564   1.046       .  S
N562        H565   1.046       .  S
N562        H566   1.046       .  S
C567        C568   1.403       .  A
C567        C572   1.398       .  A
C567        H574   1.084       .  S
C568        C569   1.413   1_556  A
C569        C570   1.412       .  A
C569        N576   1.437       .  S
C570        C571   1.407   1_554  A
C570        H575   1.084       .  S
C571        C572   1.417       .  A
C572        N573   1.433       .  S
N573        H577   1.044       .  S
N573        H578   1.046       .  S
N576        H579   1.045       .  S
N576        H580   1.046       .  S
C581        C582   1.407   1_556  A
C581        C586   1.411       .  A
C581        H588   1.084       .  S
C582        C583   1.413       .  A
C583        C584   1.401       .  A
C583        N590   1.439       .  S
C584        C585   1.403       .  A
C584        H589   1.084       .  S
C585        C586   1.410   1_554  A
C586        N587   1.432       .  S
N587        H591   1.046       .  S
N587        H592   1.045       .  S
N590        H593   1.046       .  S
N590        H594   1.046       .  S
C595        C596   1.404   1_655  A
C595        C600   1.406       .  A
C595        H602   1.084       .  S
C596        C597   1.406       .  A
C597        C598   1.400       .  A
C597        N604   1.432       .  S
C598        C599   1.403       .  A
C598        H603   1.084       .  S
C599        C600   1.412   1_455  A
C600        N601   1.438       .  S
N601        H605   1.046       .  S
N601        H606   1.045       .  S
N604        H607   1.046       .  S
N604        H608   1.046       .  S
C609        C610   1.404   1_455  A
C609        C614   1.408       .  A
C609        H616   1.084       .  S
C610        C611   1.415       .  A
C611        C612   1.403       .  A
C611        N618   1.433       .  S
C612        C613   1.404       .  A
C612        H617   1.084       .  S
C613        C614   1.412   1_655  A
C614        N615   1.438       .  S
N615        H619   1.046       .  S
N615        H620   1.046       .  S
N618        H621   1.046       .  S
N618        H622   1.044       .  S
C623        C624   1.402   1_455  A
C623        C628   1.402       .  A
C623        H630   1.084       .  S
C624        C625   1.417       .  A
C625        C626   1.402       .  A
C625        N632   1.439       .  S
C626        C627   1.403   1_655  A
C626        H631   1.084       .  S
C627        C628   1.417       .  A
C628        N629   1.440       .  S
N629        H633   1.046       .  S
N629        H634   1.042       .  S
N632        H635   1.043       .  S
N632        H636   1.046       .  S
C637        C638   1.402   1_455  A
C637        C642   1.401       .  A
C637        H644   1.084       .  S
C638        C639   1.408       .  A
C639        C640   1.404       .  A
C639        N646   1.432       .  S
C640        C641   1.404       .  A
C640        H645   1.084       .  S
C641        C642   1.409   1_655  A
C642        N643   1.432       .  S
N643        H647   1.046       .  S
N643        H648   1.045       .  S
N646        H649   1.046       .  S
N646        H650   1.046       .  S
C651        C652   1.403   1_565  A
C651        C656   1.408       .  A
C651        H658   1.084       .  S
C652        C653   1.416       .  A
C653        C654   1.402       .  A
C653        N660   1.433       .  S
C654        C655   1.405       .  A
C654        H659   1.084       .  S
C655        C656   1.417   1_545  A
C656        N657   1.438       .  S
N657        H661   1.046       .  S
N657        H662   1.045       .  S
N660        H663   1.045       .  S
N660        H664   1.043       .  S
C665        C666   1.403       .  A
C665        C670   1.406       .  A
C665        H672   1.084       .  S
C666        C667   1.409   1_545  A
C667        C668   1.404       .  A
C667        N674   1.438       .  S
C668        C669   1.403   1_565  A
C668        H673   1.084       .  S
C669        C670   1.411       .  A
C670        N671   1.437       .  S
N671        H675   1.045       .  S
N671        H676   1.046       .  S
N674        H677   1.046       .  S
N674        H678   1.045       .  S
C679        C680   1.401   1_565  A
C679        C684   1.404       .  A
C679        H686   1.084       .  S
C680        C681   1.408       .  A
C681        C682   1.402       .  A
C681        N688   1.432       .  S
C682        C683   1.403   1_545  A
C682        H687   1.084       .  S
C683        C684   1.414       .  A
C684        N685   1.438       .  S
N685        H689   1.046       .  S
N685        H690   1.046       .  S
N688        H691   1.046       .  S
N688        H692   1.045       .  S
C693        C694   1.404   1_565  A
C693        C698   1.404       .  A
C693        H700   1.084       .  S
C694        C695   1.414       .  A
C695        C696   1.402       .  A
C695        N702   1.432       .  S
C696        C697   1.403       .  A
C696        H701   1.084       .  S
C697        C698   1.415   1_545  A
C698        N699   1.432       .  S
N699        H703   1.045       .  S
N699        H704   1.046       .  S
N702        H705   1.046       .  S
N702        H706   1.044       .  S
C707        C708   1.404       .  A
C707        C712   1.407       .  A
C707        H714   1.084       .  S
C708        C709   1.413   1_554  A
C709        C710   1.406       .  A
C709        N716   1.438       .  S
C710        C711   1.403   1_556  A
C710        H715   1.084       .  S
C711        C712   1.412       .  A
C712        N713   1.438       .  S
N713        H717   1.046       .  S
N713        H718   1.046       .  S
N716        H719   1.045       .  S
N716        H720   1.046       .  S
C721        C722   1.403   1_554  A
C721        C726   1.399       .  A
C721        H728   1.084       .  S
C722        C723   1.410       .  A
C723        C724   1.405       .  A
C723        N730   1.432       .  S
C724        C725   1.404       .  A
C724        H729   1.084       .  S
C725        C726   1.414   1_556  A
C726        N727   1.433       .  S
N727        H731   1.044       .  S
N727        H732   1.045       .  S
N730        H733   1.046       .  S
N730        H734   1.046       .  S
C735        C736   1.403   1_556  A
C735        C740   1.401       .  A
C735        H742   1.084       .  S
C736        C737   1.415       .  A
C737        C738   1.402       .  A
C737        N744   1.432       .  S
C738        C739   1.403       .  A
C738        H743   1.084       .  S
C739        C740   1.414   1_554  A
C740        N741   1.433       .  S
N741        H745   1.044       .  S
N741        H746   1.046       .  S
N744        H747   1.046       .  S
N744        H748   1.045       .  S
C749        C750   1.403   1_554  A
C749        C754   1.401       .  A
C749        H756   1.084       .  S
C750        C751   1.411       .  A
C751        C752   1.408       .  A
C751        N758   1.438       .  S
C752        C753   1.405       .  A
C752        H757   1.084       .  S
C753        C754   1.415   1_556  A
C754        N755   1.433       .  S
N755        H759   1.044       .  S
N755        H760   1.045       .  S
N758        H761   1.046       .  S
N758        H762   1.046       .  S
