geometry optimzed in LAMMPS
_audit_creation_date              2020-11-30 
_audit_creation_method            'lammps2cif' 
_symmetry_space_group_name_H-M    'P1' 
_symmetry_Int_Tables_number       1 
_symmetry_cell_setting            triclinic 
loop_ 
_symmetry_equiv_pos_as_xyz 
  x,y,z 
_cell_length_a                    42.24590969 
_cell_length_b                    42.055917545565244 
_cell_length_c                    105.24050906189048 
_cell_angle_alpha                 91.17442165196951 
_cell_angle_beta                  89.05842810488274 
_cell_angle_gamma                 122.69378429999358 
loop_ 
_atom_site_label 
_atom_site_type_symbol 
_atom_site_fract_x 
_atom_site_fract_y 
_atom_site_fract_z 
_atom_site_charge 
C1          C  0.65335907  0.32430165  0.28101549     0.86500
C2          C  0.63336020  0.28460899  0.27459714    -0.53700
C3          C  0.63177894  0.28541048  0.26168698     0.09500
C4          C  0.65025045  0.32516362  0.25627513     0.20400
C5          C  0.69214471  0.34583282  0.27436413    -0.54400
C6          C  0.69035842  0.34673460  0.26145933     0.09600
C7          C  0.63237896  0.34228216  0.27601322    -0.54000
C8          C  0.63091883  0.34296851  0.26303049     0.10100
H9          H  0.62218486  0.25811535  0.27942610     0.14600
H10         H  0.64957024  0.32528524  0.24573923     0.00400
H11         H  0.71866216  0.35949387  0.27941582     0.15000
H12         H  0.61952277  0.35304300  0.28228843     0.14700
C13         C  0.67587084  0.33543270  0.37793417     0.86500
C14         C  0.63611484  0.31271211  0.38386678    -0.53700
C15         C  0.63563623  0.31336689  0.39683687     0.09500
C16         C  0.67486736  0.33639169  0.40277633     0.20400
C17         C  0.69435730  0.37527824  0.38394332    -0.54400
C18         C  0.69361092  0.37570679  0.39692421     0.09600
C19         C  0.69661529  0.31844387  0.38410448    -0.54000
C20         C  0.69627595  0.31940549  0.39710048     0.10100
H21         H  0.61060370  0.29716142  0.37827241     0.14600
H22         H  0.67429965  0.33676260  0.41333394     0.00400
H23         H  0.70627408  0.40077419  0.37838175     0.15000
H24         H  0.71050006  0.30667022  0.37901511     0.14700
N25         N  0.21322909  0.93116325  0.51353845    -0.27200
N26         N  0.18117412  0.92927106  0.51238219    -0.35100
C27         C  0.18805963  0.96255243  0.50840904     0.01100
C28         C  0.22638413  0.98667096  0.50685375     0.07100
C29         C  0.24164367  0.96593970  0.51016008    -0.06000
H30         H  0.16656851  0.96818042  0.50629657     0.07800
H31         H  0.27106363  0.97533151  0.51006173     0.09000
Cu32       Cu  0.12942836  0.88021306  0.51431002     0.44200
Cu33       Cu  0.21466907  0.88523025  0.51973783     0.42000
Cu34       Cu  0.12382625  0.79316892  0.51884195     0.43900
N35         N  0.08149723  0.82816604  0.51113106    -0.34600
N36         N  0.07922713  0.79570032  0.51200865    -0.28900
C37         C  0.04476885  0.76763204  0.50814827    -0.05000
C38         C  0.02473735  0.78362245  0.50483279     0.07200
C39         C  0.04888985  0.82190341  0.50685485     0.01000
H40         H  0.03495480  0.73795383  0.50791094     0.08700
H41         H  0.04356612  0.84384202  0.50505238     0.07800
N42         N  0.17239537  0.80278886  0.52748626    -0.36100
N43         N  0.20488189  0.83577554  0.52780247    -0.28300
C44         C  0.22912516  0.83270501  0.53499045    -0.03500
C45         C  0.21127648  0.79607043  0.53945073     0.05100
C46         C  0.17527191  0.77799171  0.53446423     0.03200
H47         H  0.25749412  0.85583959  0.53704353     0.08300
H48         H  0.15210653  0.74945252  0.53626660     0.07100
N49         N  0.80232984  0.72536411  0.49050982    -0.27200
N50         N  0.83479280  0.75693576  0.49309423    -0.35100
C51         C  0.82855177  0.78422209  0.49625612     0.01100
C52         C  0.79028415  0.76891365  0.49580538     0.07100
C53         C  0.77442172  0.73153421  0.49219215    -0.06000
H54         H  0.85025574  0.81296708  0.49879227     0.07800
H55         H  0.74498948  0.71077880  0.49043873     0.09000
Cu56       Cu  0.88584594  0.76107769  0.49281854     0.44200
Cu57       Cu  0.79839588  0.67712053  0.48327676     0.42000
Cu58       Cu  0.88628778  0.68018095  0.48172855     0.43900
N59         N  0.93130617  0.75559144  0.49473198    -0.34600
N60         N  0.93119453  0.72520312  0.49119501    -0.28900
C61         C  0.96421040  0.72987153  0.49441207    -0.05000
C62         C  0.98608790  0.76508791  0.50012907     0.07200
C63         C  0.96440772  0.78058781  0.50014532     0.01000
H64         H  0.97193784  0.70954668  0.49248803     0.08700
H65         H  0.97193853  0.80790009  0.50393872     0.07800
N66         N  0.83812665  0.64136782  0.47189757    -0.36100
N67         N  0.80591385  0.63949077  0.47269180    -0.28300
C68         C  0.78099953  0.61199851  0.46479822    -0.03500
C69         C  0.79844932  0.59591975  0.45861097     0.05100
C70         C  0.83464159  0.61532791  0.46344392     0.03200
H71         H  0.75239852  0.60460681  0.46369364     0.08300
H72         H  0.85726693  0.61155394  0.46080071     0.07100
N73         N  0.28994818  0.20966807  0.48711749    -0.27200
N74         N  0.25842776  0.17840319  0.49059594    -0.35100
C75         C  0.23228057  0.18647981  0.49329295     0.01100
C76         C  0.24829826  0.22476219  0.49165296     0.07100
C77         C  0.28493192  0.23869269  0.48777907    -0.06000
H78         H  0.20402828  0.16616931  0.49657459     0.07800
H79         H  0.30613235  0.26758523  0.48540357     0.09000
Cu80       Cu  0.25337990  0.12684563  0.49255780     0.44200
Cu81       Cu  0.33694511  0.21009098  0.48072811     0.42000
Cu82       Cu  0.33433803  0.12273607  0.48382278     0.43900
N83         N  0.25747941  0.08072432  0.49590678    -0.34600
N84         N  0.28755538  0.07967790  0.49313900    -0.28900
C85         C  0.28153505  0.04635755  0.49681415    -0.05000
C86         C  0.24587533  0.02542239  0.50206243     0.07200
C87         C  0.23139952  0.04799190  0.50131473     0.01000
H88         H  0.30127136  0.03769462  0.49546004     0.08700
H89         H  0.20395392  0.04119484  0.50448696     0.07800
N90         N  0.37390771  0.16788276  0.47300289    -0.36100
N91         N  0.37490836  0.19965773  0.47193381    -0.28300
C92         C  0.40166709  0.22171195  0.46343944    -0.03500
C93         C  0.41833320  0.20295755  0.45881503     0.05100
C94         C  0.40005947  0.16893467  0.46523707     0.03200
H95         H  0.40735836  0.24878777  0.46045572     0.08300
H96         H  0.40483347  0.14621634  0.46431940     0.07100
N97         N  0.21888080  0.28940304  0.50032413    -0.27200
N98         N  0.18637819  0.25896027  0.49695607    -0.35100
C99         C  0.19208488  0.23175453  0.49312375     0.01100
C100        C  0.23005739  0.24585127  0.49394758     0.07100
C101        C  0.24633346  0.28255753  0.49847852    -0.06000
H102        H  0.17012630  0.20367183  0.49005032     0.07800
H103        H  0.27558786  0.30212262  0.50086236     0.09000
Cu104      Cu  0.13564789  0.25564491  0.49752290     0.44200
Cu105      Cu  0.22277485  0.33660344  0.50874398     0.42000
Cu106      Cu  0.13616205  0.33708540  0.50861112     0.43900
N107        N  0.08949837  0.26043708  0.49636700    -0.34600
N108        N  0.08988668  0.29099282  0.49988692    -0.28900
C109        C  0.05618381  0.28567524  0.49729704    -0.05000
C110        C  0.03357270  0.24990809  0.49199517     0.07200
C111        C  0.05556691  0.23473182  0.49159318     0.01000
H112        H  0.04849463  0.30596070  0.49937081     0.08700
H113        H  0.04765541  0.20714230  0.48796931     0.07800
N114        N  0.18414903  0.37530623  0.51877490    -0.36100
N115        N  0.21539109  0.37519922  0.51888811    -0.28300
C116        C  0.23930930  0.40137058  0.52734701    -0.03500
C117        C  0.22238006  0.41888333  0.53285883     0.05100
C118        C  0.18744036  0.40153202  0.52712130     0.03200
H119        H  0.26617526  0.40572772  0.52974804     0.08300
H120        H  0.16545043  0.40681113  0.52908760     0.07100
N121        N  0.93816388  0.21826692  0.48223836    -0.27200
N122        N  0.93584626  0.18578970  0.48314268    -0.35100
C123        C  0.96935768  0.19231689  0.48653444     0.01100
C124        C  0.99408279  0.23081163  0.48800516     0.07100
C125        C  0.97344394  0.24656621  0.48523082    -0.06000
H126        H  0.97490968  0.17048166  0.48822349     0.07800
H127        H  0.98332801  0.27626076  0.48532936     0.09000
Cu128      Cu  0.88636577  0.13387888  0.48130761     0.44200
Cu129      Cu  0.89220841  0.22042411  0.47667295     0.42000
Cu130      Cu  0.79995881  0.12986178  0.47750460     0.43900
N131        N  0.83409549  0.08516781  0.48344467    -0.34600
N132        N  0.80200717  0.08348916  0.48279098    -0.28900
C133        C  0.77361955  0.04821577  0.48573646    -0.05000
C134        C  0.78889472  0.02695157  0.48822277     0.07200
C135        C  0.82718619  0.05127347  0.48665795     0.01000
H136        H  0.74417992  0.03875042  0.48598396     0.08700
H137        H  0.84866129  0.04517067  0.48812518     0.07800
N138        N  0.80937245  0.17953996  0.46972655    -0.36100
N139        N  0.84259506  0.21173754  0.46921498    -0.28300
C140        C  0.83962849  0.23629662  0.46213524    -0.03500
C141        C  0.80281360  0.21901138  0.45803746     0.05100
C142        C  0.78446225  0.18305170  0.46308304     0.03200
H143        H  0.86296409  0.26427907  0.45975271     0.08300
H144        H  0.75575288  0.16018975  0.46133515     0.07100
N145        N  0.72811562  0.80169181  0.50336327    -0.27200
N146        N  0.75896251  0.83369304  0.49993044    -0.35100
C147        C  0.78577410  0.82690805  0.49681038     0.01100
C148        C  0.77090728  0.78876212  0.49816308     0.07100
C149        C  0.73427957  0.77352269  0.50227490    -0.06000
H150        H  0.81382127  0.84811258  0.49360600     0.07800
H151        H  0.71398898  0.74437835  0.50465932     0.09000
Cu152      Cu  0.76314128  0.88497226  0.49896242     0.44200
Cu153      Cu  0.68070825  0.79871524  0.51066996     0.42000
Cu154      Cu  0.68444203  0.88738302  0.51015962     0.43900
N155        N  0.75880725  0.93135054  0.49688917    -0.34600
N156        N  0.72904879  0.93186562  0.50057855    -0.28900
C157        C  0.73447207  0.96556393  0.49775492    -0.05000
C158        C  0.76955596  0.98732756  0.49213250     0.07200
C159        C  0.78418843  0.96478754  0.49174624     0.01000
H160        H  0.71495049  0.97400694  0.50004117     0.08700
H161        H  0.81138460  0.97218979  0.48807075     0.07800
N162        N  0.64597326  0.84087228  0.52063527    -0.36100
N163        N  0.64390572  0.80837882  0.52068260    -0.28300
C164        C  0.61684669  0.78511055  0.52892400    -0.03500
C165        C  0.60106244  0.80385346  0.53431898     0.05100
C166        C  0.62050851  0.83923060  0.52885015     0.03200
H167        H  0.60955935  0.75678905  0.53093240     0.08300
H168        H  0.61749596  0.86273457  0.53094838     0.07100
N169        N  0.53477141  0.59029046  0.17873718    -0.27200
N170        N  0.50382645  0.59091435  0.17876458    -0.35100
C171        C  0.51208618  0.62466547  0.17482434     0.01100
C172        C  0.55001155  0.64643382  0.17205426     0.07100
C173        C  0.56372528  0.62384876  0.17459826    -0.06000
H174        H  0.49161267  0.63229050  0.17366679     0.07800
H175        H  0.59247373  0.63128185  0.17361827     0.09000
Cu176      Cu  0.45055690  0.54504255  0.18236522     0.44200
Cu177      Cu  0.53460047  0.54354002  0.18483570     0.42000
Cu178      Cu  0.44015404  0.45686242  0.18737065     0.43900
N179        N  0.39987373  0.49438597  0.18027350    -0.34600
N180        N  0.39619869  0.46129711  0.18126925    -0.28900
C181        C  0.36134103  0.43394870  0.17755679    -0.05000
C182        C  0.34232485  0.45090799  0.17418082     0.07200
C183        C  0.36753336  0.48917090  0.17607732     0.01000
H184        H  0.35083002  0.40410624  0.17720387     0.08700
H185        H  0.36337247  0.51172385  0.17395040     0.07800
N186        N  0.48874267  0.46367165  0.19483219    -0.36100
N187        N  0.52275153  0.49460973  0.19377299    -0.28300
C188        C  0.54707972  0.49034452  0.20043779    -0.03500
C189        C  0.52755887  0.45506274  0.20599945     0.05100
C190        C  0.49061411  0.43905275  0.20223328     0.03200
H191        H  0.57642461  0.51225138  0.20167743     0.08300
H192        H  0.46658239  0.41179526  0.20489884     0.07100
N193        N  0.04434590  0.46380165  0.17514480    -0.27200
N194        N  0.07620855  0.49663450  0.17342572    -0.35100
C195        C  0.10353311  0.49051535  0.17038249     0.01100
C196        C  0.08796880  0.45192657  0.16998344     0.07100
C197        C  0.05038190  0.43578836  0.17305199    -0.06000
H198        H  0.13216848  0.51246625  0.16801734     0.07800
H199        H  0.02896034  0.40596997  0.17360998     0.09000
Cu200      Cu  0.07930407  0.54749947  0.17324083     0.44200
Cu201      Cu  0.99462805  0.45978152  0.18010755     0.42000
Cu202      Cu  0.99197268  0.54435291  0.17591065     0.43900
N203        N  0.07366073  0.59193513  0.16874010    -0.34600
N204        N  0.04161366  0.59050973  0.16908625    -0.28900
C205        C  0.04746721  0.62295402  0.16448117    -0.05000
C206        C  0.08501772  0.64572605  0.16110427     0.07200
C207        C  0.10071461  0.62522026  0.16397434     0.01000
H208        H  0.02599113  0.62933659  0.16361223     0.08700
H209        H  0.12952814  0.63341210  0.16241465     0.07800
N210        N  0.95080741  0.49657856  0.18532891    -0.36100
N211        N  0.95181480  0.46599489  0.18682133    -0.28300
C212        C  0.92335850  0.44211486  0.19450545    -0.03500
C213        C  0.90366718  0.45853345  0.19816641     0.05100
C214        C  0.92172203  0.49296019  0.19205640     0.03200
H215        H  0.91877243  0.41573270  0.19780414     0.08300
H216        H  0.91510302  0.51444273  0.19272970     0.07100
N217        N  0.11982795  0.39106604  0.15868593    -0.27200
N218        N  0.15211727  0.42208651  0.16185858    -0.35100
C219        C  0.14555960  0.44807570  0.16642130     0.01100
C220        C  0.10726888  0.43265356  0.16627842     0.07100
C221        C  0.09167564  0.39639478  0.16135802    -0.06000
H222        H  0.16713816  0.47605807  0.16971114     0.07800
H223        H  0.06225093  0.37589408  0.15948983     0.09000
Cu224      Cu  0.20369630  0.42746771  0.16079612     0.44200
Cu225      Cu  0.11698738  0.34473649  0.14987667     0.42000
Cu226      Cu  0.20537322  0.34754861  0.15016206     0.43900
N227        N  0.24985890  0.42329497  0.16295128    -0.34600
N228        N  0.24990639  0.39281198  0.15971296    -0.28900
C229        C  0.28265704  0.39755358  0.16330975    -0.05000
C230        C  0.30423679  0.43291772  0.16897317     0.07200
C231        C  0.28266093  0.44849144  0.16853477     0.01000
H232        H  0.29035408  0.37706323  0.16174978     0.08700
H233        H  0.28988928  0.47578661  0.17224819     0.07800
N234        N  0.15892451  0.30993341  0.13935048    -0.36100
N235        N  0.12687062  0.30849221  0.13924899    -0.28300
C236        C  0.10365494  0.28186164  0.13076925    -0.03500
C237        C  0.12204574  0.26589070  0.12520575     0.05100
C238        C  0.15696183  0.28443182  0.13096192     0.03200
H239        H  0.07542912  0.27468775  0.12889505     0.08300
H240        H  0.17974725  0.28032132  0.12902139     0.07100
N241        N  0.53236477  0.94056549  0.16954942    -0.27200
N242        N  0.50003022  0.90849034  0.16733800    -0.35100
C243        C  0.50680439  0.88185359  0.16377263     0.01100
C244        C  0.54527679  0.89818984  0.16351509     0.07100
C245        C  0.56071452  0.93541750  0.16720921    -0.06000
H246        H  0.48536299  0.85310244  0.16113445     0.07800
H247        H  0.59024637  0.95699330  0.16828954     0.09000
Cu248      Cu  0.44880081  0.90383247  0.16740645     0.44200
Cu249      Cu  0.53570914  0.98909531  0.17598338     0.42000
Cu250      Cu  0.45122667  0.99033140  0.17215297     0.43900
N251        N  0.40476556  0.90975133  0.16307526    -0.34600
N252        N  0.40624478  0.94189355  0.16416390    -0.28900
C253        C  0.37399591  0.93671492  0.15982172    -0.05000
C254        C  0.35121440  0.89946240  0.15588988     0.07200
C255        C  0.37152012  0.88318213  0.15809242     0.01000
H256        H  0.36738364  0.95823576  0.15979608     0.08700
H257        H  0.36294703  0.85424187  0.15614831     0.07800
N258        N  0.49741930  0.03049635  0.18246128    -0.36100
N259        N  0.52825319  0.03012640  0.18384181    -0.28300
C260        C  0.55132884  0.05794697  0.19197140    -0.03500
C261        C  0.53403837  0.07650174  0.19601074     0.05100
C262        C  0.49998050  0.05846238  0.18970143     0.03200
H263        H  0.57785205  0.06297327  0.19521485     0.08300
H264        H  0.47816358  0.06448292  0.19050164     0.07100
N265        N  0.60732247  0.86730688  0.15318225    -0.27200
N266        N  0.57841912  0.83571615  0.15779481    -0.35100
C267        C  0.55202281  0.84190855  0.16198920     0.01100
C268        C  0.56511160  0.87939977  0.16013533     0.07100
C269        C  0.60029923  0.89487445  0.15456191    -0.06000
H270        H  0.52566352  0.82084262  0.16636364     0.07800
H271        H  0.61903170  0.92373657  0.15154298     0.09000
Cu272      Cu  0.57690117  0.78628205  0.15915154     0.44200
Cu273      Cu  0.65340432  0.86940293  0.14474708     0.42000
Cu274      Cu  0.65210827  0.78072045  0.14618069     0.43900
N275        N  0.58138932  0.74055363  0.16160087    -0.34600
N276        N  0.60945740  0.73816067  0.15715835    -0.28900
C277        C  0.60361996  0.70457297  0.16049035    -0.05000
C278        C  0.57005203  0.68513397  0.16723252     0.07200
C279        C  0.55685844  0.70881073  0.16774276     0.01000
H280        H  0.62166797  0.69458630  0.15782816     0.08700
H281        H  0.53105803  0.70328550  0.17214213     0.07800
N282        N  0.68994046  0.82751552  0.13549969    -0.36100
N283        N  0.69140846  0.85977437  0.13533652    -0.28300
C284        C  0.71998539  0.88400945  0.12770832    -0.03500
C285        C  0.73705018  0.86607029  0.12275695     0.05100
C286        C  0.71710225  0.83026874  0.12783876     0.03200
H287        H  0.72729309  0.91234796  0.12571162     0.08300
H288        H  0.72232293  0.80798679  0.12624782     0.07100
N289        N  0.25781968  0.86856702  0.14473485    -0.27200
N290        N  0.25449687  0.83579603  0.14618036    -0.35100
C291        C  0.28751916  0.84185665  0.14995503     0.01100
C292        C  0.31278642  0.88038683  0.15101723     0.07100
C293        C  0.29313875  0.89659344  0.14761452    -0.06000
H294        H  0.29214471  0.81980590  0.15237920     0.07800
H295        H  0.30337656  0.92636909  0.14754447     0.09000
Cu296      Cu  0.20384064  0.78490355  0.14501723     0.44200
Cu297      Cu  0.21296783  0.87198603  0.13947987     0.42000
Cu298      Cu  0.11894511  0.78385715  0.14043084     0.43900
N299        N  0.15078811  0.73867259  0.14842923    -0.34600
N300        N  0.11930302  0.73798111  0.14732650    -0.28900
C301        C  0.09043704  0.70448174  0.15154272    -0.05000
C302        C  0.10483958  0.68346876  0.15545139     0.07200
C303        C  0.14305584  0.70602197  0.15330034     0.01000
H304        H  0.06136613  0.69629408  0.15188721     0.08700
H305        H  0.16404188  0.69974929  0.15548014     0.07800
N306        N  0.13095638  0.83421421  0.13246802    -0.36100
N307        N  0.16472897  0.86574791  0.13232583    -0.28300
C308        C  0.16342109  0.89198525  0.12573311    -0.03500
C309        C  0.12710949  0.87643698  0.12147079     0.05100
C310        C  0.10728853  0.83971010  0.12589871     0.03200
H311        H  0.18773595  0.91965002  0.12363570     0.08300
H312        H  0.07802158  0.81822752  0.12421470     0.07100
C313        C  0.00357227  0.00392971  0.04551839     0.86500
C314        C  0.96360977  0.98010776  0.05124738    -0.53700
C315        C  0.96265663  0.98092151  0.06418196     0.09500
C316        C  0.00139965  0.00475995  0.07034484     0.20400
C317        C  0.02083252  0.04362137  0.05150266    -0.54400
C318        C  0.01973431  0.04402095  0.06447796     0.09600
C319        C  0.02495998  0.98801993  0.05184970    -0.54000
C320        C  0.02389294  0.98873494  0.06483592     0.10100
H321        H  0.93826738  0.96423179  0.04558527     0.14600
H322        H  0.00037694  0.00519058  0.08089780     0.00400
H323        H  0.03276742  0.06911230  0.04593189     0.15000
H324        H  0.03828083  0.97552232  0.04684589     0.14700
C325        C  0.99867544  0.00102973  0.94854724     0.86500
C326        C  0.97582279  0.96149606  0.94213214    -0.53700
C327        C  0.97630955  0.96222638  0.92919093     0.09500
C328        C  0.99941107  0.00205710  0.92372702     0.20400
C329        C  0.03832157  0.01871935  0.94251120    -0.54400
C330        C  0.03850217  0.01903330  0.92950773     0.09600
C331        C  0.98269585  0.02298742  0.94291929    -0.54000
C332        C  0.98337491  0.02376306  0.92995960     0.10100
H333        H  0.96158629  0.93489040  0.94705050     0.14600
H334        H  0.99957435  0.00251595  0.91317889     0.00400
H335        H  0.06368137  0.02886245  0.94799178     0.15000
H336        H  0.97188544  0.03681031  0.94869974     0.14700
C337        C  0.34474669  0.67466487  0.61501246     0.86500
C338        C  0.32442554  0.63463329  0.60903633    -0.53700
C339        C  0.32209590  0.63397762  0.59610844     0.09500
C340        C  0.34131073  0.67332400  0.59023107     0.20400
C341        C  0.38360886  0.69532557  0.60824918    -0.54400
C342        C  0.38169260  0.69431789  0.59527507     0.09600
C343        C  0.32452717  0.69294278  0.60970676    -0.54000
C344        C  0.32310814  0.69251581  0.59676678     0.10100
H345        H  0.31285857  0.60905767  0.61454020     0.14600
H346        H  0.33947688  0.67288605  0.57972678     0.00400
H347        H  0.41042155  0.70791610  0.61296290     0.15000
H348        H  0.31303356  0.70577012  0.61566944     0.14700
C349        C  0.33450586  0.65376221  0.71201688     0.86500
C350        C  0.29518680  0.63642951  0.71829604    -0.53700
C351        C  0.29571400  0.63516877  0.73124329     0.09500
C352        C  0.33469347  0.65035674  0.73676186     0.20400
C353        C  0.35939719  0.69234419  0.71871739    -0.54400
C354        C  0.35941313  0.69051832  0.73166036     0.09600
C355        C  0.34821839  0.62894999  0.71700941    -0.54000
C356        C  0.34879305  0.62784001  0.72993424     0.10100
H357        H  0.26924018  0.62592853  0.71315745     0.14600
H358        H  0.33460329  0.64873706  0.74729054     0.00400
H359        H  0.37574199  0.71869471  0.71361165     0.15000
H360        H  0.35657114  0.61341700  0.71099196     0.14700
N361        N  0.45448345  0.03494796  0.82165875    -0.27200
N362        N  0.48569168  0.06707846  0.82484780    -0.35100
C363        C  0.47718874  0.09267027  0.82813663     0.01100
C364        C  0.43871710  0.07581111  0.82715100     0.07100
C365        C  0.42509611  0.03912227  0.82305002    -0.06000
H366        H  0.49752180  0.12135804  0.83119580     0.07800
H367        H  0.39619304  0.01742852  0.82092711     0.09000
Cu368      Cu  0.53822621  0.07409602  0.82548050     0.44200
Cu369      Cu  0.45495761  0.98820380  0.81498961     0.42000
Cu370      Cu  0.54217752  0.99137658  0.81988075     0.43900
N371        N  0.58563044  0.07233919  0.82869885    -0.34600
N372        N  0.58638920  0.04141768  0.82741594    -0.28900
C373        C  0.62027993  0.04907622  0.83102604    -0.05000
C374        C  0.64194365  0.08674246  0.83461124     0.07200
C375        C  0.61919476  0.10065923  0.83297030     0.01000
H376        H  0.62876386  0.02896902  0.83075877     0.08700
H377        H  0.62629337  0.12913987  0.83491895     0.07800
N378        N  0.49700125  0.94934175  0.80959511    -0.36100
N379        N  0.46557882  0.94831557  0.80773740    -0.28300
C380        C  0.44347679  0.91925871  0.79983886    -0.03500
C381        C  0.46172007  0.90094825  0.79657369     0.05100
C382        C  0.49569853  0.92103271  0.80292291     0.03200
H383        H  0.41689438  0.91321922  0.79627628     0.08300
H384        H  0.51827760  0.91604252  0.80251015     0.07100
N385        N  0.37418219  0.10647637  0.83468229    -0.27200
N386        N  0.40536793  0.13883500  0.83177703    -0.35100
C387        C  0.43251612  0.13257208  0.82869632     0.01100
C388        C  0.41783695  0.09434326  0.82949434     0.07100
C389        C  0.38065590  0.07845193  0.83327188    -0.06000
H390        H  0.46085071  0.15433156  0.82593855     0.07800
H391        H  0.36027570  0.04900276  0.83523106     0.09000
Cu392      Cu  0.41008231  0.19028699  0.83146705     0.44200
Cu393      Cu  0.32626810  0.10432374  0.84154568     0.42000
Cu394      Cu  0.33097522  0.19458660  0.84037798     0.43900
N395        N  0.40850949  0.23808896  0.82936990    -0.34600
N396        N  0.37865463  0.23944595  0.83213774    -0.28900
C397        C  0.38596447  0.27383234  0.82925098    -0.05000
C398        C  0.42232550  0.29502871  0.82454881     0.07200
C399        C  0.43580696  0.27157523  0.82478348     0.01000
H400        H  0.36661183  0.28293254  0.83073256     0.08700
H401        H  0.46328181  0.27817702  0.82173448     0.07800
N402        N  0.29078707  0.14766693  0.85033289    -0.36100
N403        N  0.28852120  0.11507602  0.85070404    -0.28300
C404        C  0.26117875  0.09248499  0.85899332    -0.03500
C405        C  0.24556547  0.11175770  0.86416012     0.05100
C406        C  0.26529068  0.14671720  0.85838387     0.03200
H407        H  0.25418707  0.06452229  0.86140451     0.08300
H408        H  0.26318743  0.17081016  0.86038069     0.07100
N409        N  0.94210313  0.53644035  0.81984537    -0.27200
N410        N  0.91180310  0.50370929  0.82302903    -0.35100
C411        C  0.88536052  0.50943474  0.82754080     0.01100
C412        C  0.89977147  0.54768533  0.82737870     0.07100
C413        C  0.93586595  0.56413886  0.82246783    -0.06000
H414        H  0.85811307  0.48744035  0.83110155     0.07800
H415        H  0.95596269  0.59388325  0.82087304     0.09000
Cu416      Cu  0.90886954  0.45318768  0.82270609     0.44200
Cu417      Cu  0.98980397  0.54038006  0.81210832     0.42000
Cu418      Cu  0.99199139  0.45431429  0.81490235     0.43900
N419        N  0.91412223  0.40793648  0.82559983    -0.34600
N420        N  0.94523030  0.40846991  0.82328757    -0.28900
C421        C  0.94008548  0.37549557  0.82699880    -0.05000
C422        C  0.90385981  0.35330776  0.83176764     0.07200
C423        C  0.88825233  0.37471091  0.83070462     0.01000
H424        H  0.96085098  0.36803882  0.82608552     0.08700
H425        H  0.86030036  0.36697781  0.83360463     0.07800
N426        N  0.03243980  0.50278539  0.80557795    -0.36100
N427        N  0.03159175  0.53357911  0.80438100    -0.28300
C428        C  0.06076192  0.55818476  0.79702565    -0.03500
C429        C  0.08110664  0.54227570  0.79350033     0.05100
C430        C  0.06216202  0.50710528  0.79909653     0.03200
H431        H  0.06632579  0.58539895  0.79426639     0.08300
H432        H  0.06831647  0.48534244  0.79804892     0.07100
N433        N  0.86747499  0.60720391  0.83956793    -0.27200
N434        N  0.83513782  0.57546129  0.83708506    -0.35100
C435        C  0.84182368  0.54966023  0.83243894     0.05000
C436        C  0.88028648  0.56611644  0.83179307     0.07100
C437        C  0.89582421  0.60267334  0.83636329    -0.06000
H438        H  0.82026299  0.52134980  0.82941769     0.07800
H439        H  0.92538781  0.62412478  0.83745993     0.09000
Cu440      Cu  0.78386486  0.57041928  0.83853585     0.44200
Cu441      Cu  0.86970855  0.65384282  0.84752352     0.42000
Cu442      Cu  0.78373501  0.65496008  0.84435785     0.43900
N443        N  0.73822511  0.57456510  0.83527045    -0.34600
N444        N  0.73846606  0.60602177  0.83655204    -0.28900
C445        C  0.70536152  0.59952689  0.83246935    -0.05000
C446        C  0.68343439  0.56209671  0.82853994     0.07200
C447        C  0.70510575  0.54720808  0.83048429     0.01000
H448        H  0.69774742  0.62030412  0.83249296     0.08700
H449        H  0.69777662  0.51877702  0.82828307     0.07800
N450        N  0.83002959  0.69358648  0.85507797    -0.36100
N451        N  0.86056988  0.69265129  0.85643429    -0.28300
C452        C  0.88334679  0.71947133  0.86488910    -0.03500
C453        C  0.86644935  0.73832148  0.86912365     0.05100
C454        C  0.83274106  0.72120079  0.86257111     0.03200
H455        H  0.90985819  0.72411719  0.86795440     0.08300
H456        H  0.81144592  0.72795134  0.86313884     0.07100
N457        N  0.87153098  0.26047112  0.84454361    -0.27200
N458        N  0.83935442  0.25719190  0.84201380    -0.35100
C459        C  0.84621828  0.28964637  0.83724224     0.01100
C460        C  0.88462320  0.31463850  0.83657457     0.07100
C461        C  0.90002244  0.29534093  0.84125117    -0.06000
H462        H  0.82472716  0.29429858  0.83417707     0.07800
H463        H  0.92956275  0.30591174  0.84229782     0.09000
Cu464      Cu  0.78744069  0.20820129  0.84392502     0.44200
Cu465      Cu  0.87333695  0.21669689  0.85263379     0.42000
Cu466      Cu  0.78218133  0.12526326  0.85444053     0.43900
N467        N  0.73882648  0.15550094  0.84319041    -0.34600
N468        N  0.73660017  0.12425441  0.84655438    -0.28900
C469        C  0.70164657  0.09455806  0.84401325    -0.05000
C470        C  0.68117178  0.10816509  0.83893284     0.07200
C471        C  0.70561893  0.14684351  0.83857625     0.01000
H472        H  0.69183851  0.06537902  0.84579400     0.08700
H473        H  0.70004165  0.16721224  0.83493303     0.07800
N474        N  0.83228301  0.13629040  0.86234382    -0.36100
N475        N  0.86489242  0.16909037  0.86171586    -0.28300
C476        C  0.89069277  0.16685696  0.86828486    -0.03500
C477        C  0.87377875  0.13091057  0.87325164     0.05100
C478        C  0.83667212  0.11240892  0.86928876     0.03200
H479        H  0.91964361  0.18992682  0.86944287     0.08300
H480        H  0.81404241  0.08407375  0.87164812     0.07100
N481        N  0.59110938  0.52631490  0.81491367    -0.27200
N482        N  0.58927268  0.49456577  0.81716440    -0.35100
C483        C  0.62174050  0.50270475  0.82226480     0.01100
C484        C  0.64519228  0.54146655  0.82337031     0.07100
C485        C  0.62497137  0.55572742  0.81863635    -0.06000
H486        H  0.62743551  0.48180431  0.82523531     0.07800
H487        H  0.63415183  0.58513211  0.81790449     0.09000
Cu488      Cu  0.54177865  0.44141430  0.81456614     0.44200
Cu489      Cu  0.54673343  0.52659115  0.80690941     0.42000
Cu490      Cu  0.45618979  0.43577152  0.80743302     0.43900
N491        N  0.48941439  0.39228205  0.81583949    -0.34600
N492        N  0.45761507  0.39051338  0.81404391    -0.28900
C493        C  0.42858166  0.35556420  0.81686323    -0.05000
C494        C  0.44304801  0.33445432  0.82046511     0.07200
C495        C  0.48162647  0.35852311  0.81966837     0.01000
H496        H  0.39923854  0.34620464  0.81624194     0.08700
H497        H  0.50255952  0.35237780  0.82208794     0.07800
N498        N  0.46538267  0.48373391  0.79863805    -0.36100
N499        N  0.49814045  0.51636802  0.79833586    -0.28300
C500        C  0.49509472  0.54038763  0.79101720    -0.03500
C501        C  0.45862057  0.52211031  0.78648728     0.05100
C502        C  0.44066645  0.48619078  0.79152837     0.03200
H503        H  0.51834339  0.56849093  0.78874759     0.08300
H504        H  0.41190309  0.46317237  0.78996096     0.07100
C505        C  0.39554133  0.78545471  0.74785234    -0.27600
C506        C  0.41322770  0.78264309  0.75854207     0.02000
C507        C  0.41545875  0.75074343  0.75989621     0.30100
C508        C  0.39895061  0.72152182  0.75080266    -0.19400
C509        C  0.38035662  0.72379752  0.74024800    -0.28800
C510        C  0.37916641  0.75635602  0.73872644     0.44200
C511        C  0.42629444  0.81171480  0.76869975     0.05300
O512        O  0.43163974  0.74689395  0.77046018    -0.57300
H513        H  0.40010648  0.69668353  0.75213107     0.18300
O514        O  0.36051087  0.75927129  0.72872440    -0.64000
H515        H  0.39348318  0.80985419  0.74679095     0.16700
C516        C  0.46475569  0.83781070  0.77089187     0.29000
C517        C  0.47602125  0.86638779  0.78014273    -0.24900
C518        C  0.44922268  0.86917692  0.78735822    -0.24200
C519        C  0.41068366  0.84199811  0.78540266     0.40400
C520        C  0.39956222  0.81369724  0.77610389    -0.26600
O521        O  0.49139226  0.83662232  0.76364247    -0.58500
H522        H  0.50577767  0.88695549  0.78141487     0.16100
O523        O  0.38369409  0.84191511  0.79285398    -0.59900
H524        H  0.36984928  0.79317618  0.77463943     0.14500
H525        H  0.33377366  0.74586907  0.73144381     0.46400
H526        H  0.50110301  0.82484309  0.76910549     0.41800
H527        H  0.37064016  0.84979571  0.78720135     0.45200
H528        H  0.45652044  0.75233778  0.76755343     0.36700
C529        C  0.20188534  0.57196517  0.74773416    -0.27600
C530        C  0.20259575  0.59701871  0.75691983     0.02000
C531        C  0.23317660  0.63478335  0.75726012     0.30100
C532        C  0.26306975  0.64689532  0.74868534    -0.19400
C533        C  0.26242757  0.62194925  0.73949604    -0.28800
C534        C  0.23153894  0.58430183  0.73898474     0.44200
C535        C  0.17175722  0.58345255  0.76631868     0.05300
O536        O  0.23469441  0.65960044  0.76626568    -0.57300
H537        H  0.28695006  0.67583879  0.74923526     0.18300
O538        O  0.23059464  0.55920652  0.73022620    -0.64000
H539        H  0.17843445  0.54279388  0.74742488     0.16700
C540        C  0.14524251  0.59370446  0.76551884     0.29000
C541        C  0.11643144  0.58091644  0.77460006    -0.24900
C542        C  0.11340752  0.55754882  0.78453085    -0.24200
C543        C  0.14068283  0.54809435  0.78546126     0.40400
C544        C  0.16934263  0.56075526  0.77632008    -0.26600
O545        O  0.14712323  0.61597596  0.75582287    -0.58500
H546        H  0.09585311  0.58852224  0.77365426     0.16100
O547        O  0.14001435  0.52700713  0.79535053    -0.59900
H548        H  0.19004556  0.55323198  0.77711644     0.14500
H549        H  0.24410549  0.54878152  0.73425717     0.46400
H550        H  0.13205838  0.59810487  0.74886069     0.41800
H551        H  0.15452446  0.54556947  0.80222897     0.45200
H552        H  0.22495446  0.67340117  0.76198902     0.36700
C553        C  0.44072733  0.58814443  0.76832204    -0.27600
C554        C  0.41088070  0.56260900  0.76044511     0.02000
C555        C  0.39728407  0.52388186  0.76095730     0.30100
C556        C  0.41319587  0.51115485  0.76943808    -0.19400
C557        C  0.44271947  0.53660118  0.77751229    -0.28800
C558        C  0.45649429  0.57548174  0.77685136     0.44200
C559        C  0.39393894  0.57697137  0.75193480     0.05300
O560        O  0.36960398  0.49859367  0.75281938    -0.57300
H561        H  0.40264289  0.48128409  0.76954457     0.18300
O562        O  0.48477635  0.60138307  0.78466069    -0.64000
H563        H  0.45133971  0.61803910  0.76804637     0.16700
C564        C  0.35570499  0.56474503  0.75311759     0.29000
C565        C  0.34096296  0.58076582  0.74561051    -0.24900
C566        C  0.36391335  0.60888558  0.73687430    -0.24200
C567        C  0.40207547  0.62119424  0.73567958     0.40400
C568        C  0.41684395  0.60518313  0.74316753    -0.26600
O569        O  0.33286970  0.53813641  0.76188297    -0.58500
H570        H  0.31171904  0.57171813  0.74675715     0.16100
O571        O  0.42543133  0.64983635  0.72757750    -0.59900
H572        H  0.44641338  0.61526092  0.74230246     0.14500
H573        H  0.47188427  0.60317314  0.79234332     0.46400
H574        H  0.33652620  0.55252490  0.76989479     0.41800
H575        H  0.43419428  0.67349143  0.73251885     0.45200
H576        H  0.34720319  0.48266630  0.75825117     0.36700
C577        C  0.30898467  0.65012633  0.64948815    -0.27600
C578        C  0.34192392  0.67175042  0.65664602     0.02000
C579        C  0.37606520  0.69582653  0.65016424     0.30100
C580        C  0.37710329  0.69679039  0.63686378    -0.19400
C581        C  0.34423699  0.67442347  0.62960016    -0.28800
C582        C  0.30975684  0.65204416  0.63621076     0.44200
C583        C  0.34038623  0.66838848  0.67077696     0.05300
O584        O  0.40873066  0.71904996  0.65672141    -0.57300
H585        H  0.40391700  0.71613608  0.63248877     0.18300
O586        O  0.27652053  0.63105648  0.62974064    -0.64000
H587        H  0.28237268  0.63118822  0.65418128     0.16700
C588        C  0.31198638  0.66817189  0.67808192     0.29000
C589        C  0.30988796  0.66266992  0.69123162    -0.24900
C590        C  0.33623196  0.65792041  0.69754100    -0.24200
C591        C  0.36676644  0.66197550  0.69030307     0.40400
C592        C  0.36762027  0.66533089  0.67708789    -0.26600
O593        O  0.28654860  0.67419920  0.67252921    -0.58500
H594        H  0.28814933  0.66353689  0.69647226     0.16100
O595        O  0.39640919  0.66325050  0.69598887    -0.59900
H596        H  0.39002757  0.66578551  0.67177689     0.14500
H597        H  0.26556255  0.64679890  0.62979285     0.46400
H598        H  0.29848977  0.70199117  0.67278774     0.41800
H599        H  0.41372966  0.69003737  0.69860179     0.45200
H600        H  0.40897853  0.74239675  0.65857054     0.36700
C601        C  0.16956008  0.10328809  0.88668477    -0.27600
C602        C  0.16404398  0.07459947  0.89474003     0.02000
C603        C  0.18516950  0.05814608  0.89273579     0.30100
C604        C  0.21146243  0.07047855  0.88278850    -0.19400
C605        C  0.21714744  0.09922296  0.87460744    -0.28800
C606        C  0.19571160  0.11560406  0.87666838     0.44200
C607        C  0.13384016  0.05981124  0.90446631     0.05300
O608        O  0.17999901  0.02965433  0.90037628    -0.57300
H609        H  0.22757606  0.05753357  0.88157552     0.18300
O610        O  0.19834034  0.14202174  0.86854426    -0.64000
H611        H  0.15267966  0.11543603  0.88793569     0.16700
C612        C  0.13529443  0.08228153  0.91483160     0.29000
C613        C  0.10482496  0.06816691  0.92335725    -0.24900
C614        C  0.07243079  0.03203141  0.92147587    -0.24200
C615        C  0.07165056  0.00926608  0.91130437     0.40400
C616        C  0.10217417  0.02320721  0.90292040    -0.26600
O617        O  0.16643476  0.11788152  0.91672371    -0.58500
H618        H  0.10590993  0.08596559  0.93114912     0.16100
O619        O  0.04093594  0.97344731  0.90935866    -0.59900
H620        H  0.10073933  0.00565931  0.89497977     0.14500
H621        H  0.21122647  0.16618743  0.87343399     0.46400
H622        H  0.16031711  0.13513645  0.91278720     0.41800
H623        H  0.04824793  0.95637493  0.91263149     0.45200
H624        H  0.19636528  0.04259416  0.90782966     0.36700
C625        C  0.87356131  0.80923682  0.89390631    -0.27600
C626        C  0.91245147  0.83154635  0.89588703     0.02000
C627        C  0.93597019  0.82244535  0.88941604     0.30100
C628        C  0.92055872  0.79190527  0.88084684    -0.19400
C629        C  0.88159303  0.76981693  0.87859877    -0.28800
C630        C  0.85799442  0.77836507  0.88547533     0.44200
C631        C  0.92823281  0.86466849  0.90455303     0.05300
O632        O  0.97414335  0.84366552  0.89122995    -0.57300
H633        H  0.93943980  0.78613752  0.87576153     0.18300
O634        O  0.81966648  0.75660262  0.88423920    -0.64000
H635        H  0.85513484  0.81563669  0.89901953     0.16700
C636        C  0.92282920  0.89425201  0.90221709     0.29000
C637        C  0.93818081  0.92557310  0.91043364    -0.24900
C638        C  0.95888893  0.92783318  0.92106386    -0.24200
C639        C  0.96447856  0.89827447  0.92337384     0.40400
C640        C  0.94909800  0.86694903  0.91514540    -0.26600
O641        O  0.90295950  0.89298808  0.89183392    -0.58500
H642        H  0.93389018  0.94818946  0.90849663     0.16100
O643        O  0.98555204  0.90003146  0.93346288    -0.59900
H644        H  0.95352047  0.84438637  0.91701194     0.14500
H645        H  0.81101296  0.73585205  0.89038094     0.46400
H646        H  0.92158251  0.90355788  0.88478342     0.41800
H647        H  0.01201101  0.91486120  0.93044031     0.45200
H648        H  0.98414920  0.86358466  0.88470473     0.36700
C649        C  0.97676648  0.08546303  0.90568576    -0.27600
C650        C  0.93918593  0.07473851  0.90717442     0.02000
C651        C  0.91680014  0.04861602  0.91663649     0.30100
C652        C  0.93182133  0.03306350  0.92427716    -0.19400
C653        C  0.96899701  0.04280464  0.92249155    -0.28800
C654        C  0.99158231  0.06932535  0.91316079     0.44200
C655        C  0.92302850  0.08956715  0.89845496     0.05300
O656        O  0.88002102  0.03769036  0.91834304    -0.57300
H657        H  0.91408222  0.01253042  0.93137470     0.18300
O658        O  0.02841904  0.08031174  0.91151331    -0.64000
H659        H  0.99434752  0.10565254  0.89848180     0.16700
C660        C  0.93639890  0.12829347  0.89820606     0.29000
C661        C  0.92053462  0.14146705  0.88985655    -0.24900
C662        C  0.89108789  0.11641404  0.88167211    -0.24200
C663        C  0.87839735  0.07771429  0.88176645     0.40400
C664        C  0.89410421  0.06460049  0.89017743    -0.26600
O665        O  0.96460935  0.15339953  0.90620608    -0.58500
H666        H  0.93081121  0.17128575  0.88999778     0.16100
O667        O  0.85119288  0.05246085  0.87351506    -0.59900
H668        H  0.88399945  0.03480469  0.89012565     0.14500
H669        H  0.02879552  0.06689532  0.90370906     0.46400
H670        H  0.95165980  0.15367809  0.91411287     0.41800
H671        H  0.86484998  0.05410683  0.86554934     0.45200
H672        H  0.88083305  0.05629488  0.92449433     0.36700
C673        C  0.97970990  0.01495241  0.01140668    -0.27600
C674        C  0.00157375  0.00570145  0.00407009     0.02000
C675        C  0.02507038  0.99673904  0.01010024     0.30100
C676        C  0.02615322  0.99649232  0.02337623    -0.19400
C677        C  0.00353360  0.00479577  0.03095605    -0.28800
C678        C  0.98095063  0.01513501  0.02470346     0.44200
C679        C  0.99939968  0.00476852  0.99008478     0.05300
O680        O  0.04758076  0.98869590  0.00305818    -0.57300
H681        H  0.04539861  0.99031626  0.02747794     0.18300
O682        O  0.95934212  0.02480959  0.03152804    -0.64000
H683        H  0.96163888  0.02210368  0.00680197     0.16700
C684        C  0.97354208  0.97123772  0.98364609     0.29000
C685        C  0.97292016  0.97006631  0.97036031    -0.24900
C686        C  0.99849852  0.00210876  0.96314494    -0.24200
C687        C  0.02309651  0.03628783  0.96981909     0.40400
C688        C  0.02379604  0.03721893  0.98313907    -0.26600
O689        O  0.94827249  0.93951658  0.99028796    -0.58500
H690        H  0.95150667  0.94391750  0.96597492     0.16100
O691        O  0.04707274  0.06894081  0.96340380    -0.59900
H692        H  0.04351651  0.06336898  0.98807205     0.14500
H693        H  0.97434284  0.05282251  0.03188317     0.46400
H694        H  0.96121890  0.92603120  0.99166977     0.41800
H695        H  0.03352769  0.08212582  0.96285151     0.45200
H696        H  0.03206689  0.96101463  0.00150170     0.36700
C697        C  0.09252822  0.96627984  0.07831946    -0.27600
C698        C  0.07137928  0.94302218  0.08847170     0.02000
C699        C  0.03528993  0.93566537  0.09100482     0.30100
C700        C  0.02049000  0.95118599  0.08332729    -0.19400
C701        C  0.04103263  0.97362960  0.07292853    -0.28800
C702        C  0.07758206  0.98159053  0.07054044     0.44200
C703        C  0.08690684  0.92633055  0.09644715     0.05300
O704        O  0.01471116  0.91405773  0.10117050    -0.57300
H705        H  0.99261090  0.94514611  0.08542902     0.18300
O706        O  0.09912562  0.00473217  0.06079266    -0.64000
H707        H  0.12055017  0.97237447  0.07640437     0.16700
C708        C  0.07204019  0.88731845  0.09585764     0.29000
C709        C  0.08515763  0.87138276  0.10411664    -0.24900
C710        C  0.11346979  0.89404440  0.11295593    -0.24200
C711        C  0.12862864  0.93332133  0.11340692     0.40400
C712        C  0.11544098  0.94918446  0.10512184    -0.26600
O713        O  0.04447985  0.86453763  0.08728589    -0.58500
H714        H  0.07345542  0.84128348  0.10347752     0.16100
O715        O  0.15556007  0.95636400  0.12211527    -0.59900
H716        H  0.12681681  0.97924851  0.10567999     0.14500
H717        H  0.11151359  0.03076300  0.06435212     0.46400
H718        H  0.05809314  0.86574223  0.07936078     0.41800
H719        H  0.14145815  0.95441784  0.12999764     0.45200
H720        H  0.99690956  0.88852196  0.09755852     0.36700
C721        C  0.88048411  0.90806836  0.08402448    -0.27600
C722        C  0.86332326  0.92778306  0.08760572     0.02000
C723        C  0.87812785  0.96432501  0.08275154     0.30100
C724        C  0.91025071  0.98108119  0.07500628    -0.19400
C725        C  0.92749534  0.96156102  0.07166472    -0.28800
C726        C  0.91204611  0.92455318  0.07596463     0.44200
C727        C  0.83102944  0.91095301  0.09672683     0.05300
O728        O  0.86148019  0.98402208  0.08555930    -0.57300
H729        H  0.92186434  0.00951189  0.07162942     0.18300
O730        O  0.92819157  0.90469279  0.07263541    -0.64000
H731        H  0.86997704  0.88019094  0.08770227     0.16700
C732        C  0.79961341  0.87370939  0.09516945     0.29000
C733        C  0.76934133  0.85928583  0.10378504    -0.24900
C734        C  0.76959418  0.88160606  0.11393972    -0.24200
C735        C  0.80118204  0.91850304  0.11561997     0.40400
C736        C  0.83159022  0.93272217  0.10714703    -0.26600
O737        O  0.79735915  0.85192303  0.08491044    -0.58500
H738        H  0.74517479  0.83085419  0.10233826     0.16100
O739        O  0.80293069  0.94076760  0.12563570    -0.59900
H740        H  0.85585860  0.96097649  0.10876750     0.14500
H741        H  0.91918395  0.89493411  0.06391061     0.46400
H742        H  0.80047629  0.83206485  0.08841592     0.41800
H743        H  0.81393577  0.93470718  0.13271666     0.45200
H744        H  0.84189394  0.97594551  0.07899269     0.36700
C745        C  0.08656534  0.14218265  0.07841628    -0.27600
C746        C  0.06509546  0.14256546  0.08866074     0.02000
C747        C  0.02863247  0.11096710  0.09072654     0.30100
C748        C  0.01403123  0.07941594  0.08262853    -0.19400
C749        C  0.03534486  0.07885927  0.07236426    -0.28800
C750        C  0.07193603  0.11058516  0.07027656     0.44200
C751        C  0.08115339  0.17538020  0.09747700     0.05300
O752        O  0.00727504  0.11050144  0.10076471    -0.57300
H753        H  0.98596664  0.05521319  0.08440906     0.18300
O754        O  0.09402045  0.11058489  0.06057423    -0.64000
H755        H  0.11482576  0.16628758  0.07682120     0.16700
C756        C  0.10941314  0.18243497  0.10606620     0.29000
C757        C  0.12251660  0.21205909  0.11495514    -0.24900
C758        C  0.10793065  0.23526133  0.11542113    -0.24200
C759        C  0.08018298  0.22860695  0.10653962     0.40400
C760        C  0.06681641  0.19864328  0.09774665    -0.26600
O761        O  0.12301342  0.15930908  0.10626559    -0.58500
H762        H  0.14355354  0.21622313  0.12170164     0.16100
O763        O  0.06606153  0.25124514  0.10625736    -0.59900
H764        H  0.04512149  0.19347571  0.09111240     0.14500
H765        H  0.10541486  0.09715437  0.06393902     0.46400
H766        H  0.14529084  0.17133232  0.10054945     0.41800
H767        H  0.08265134  0.27171919  0.10028471     0.45200
H768        H  0.01424529  0.10082818  0.10801373     0.36700
C769        C  0.51788332  0.78848802  0.55414006    -0.27600
C770        C  0.51231809  0.76008205  0.56232791     0.02000
C771        C  0.53646135  0.74676141  0.56157903     0.30100
C772        C  0.56539784  0.76138135  0.55249319    -0.19400
C773        C  0.57078693  0.78950300  0.54407903    -0.28800
C774        C  0.54663548  0.80305811  0.54501338     0.44200
C775        C  0.47977174  0.74300214  0.57107719     0.05300
O776        O  0.53166460  0.71912957  0.56958300    -0.57300
H777        H  0.58370729  0.75074121  0.55208048     0.18300
O778        O  0.54989013  0.82958404  0.53680819    -0.64000
H779        H  0.49913325  0.79863076  0.55459485     0.16700
C780        C  0.47962146  0.76229811  0.58210606     0.29000
C781        C  0.44770563  0.74605425  0.58997104    -0.24900
C782        C  0.41547258  0.71068478  0.58689264    -0.24200
C783        C  0.41595055  0.69128725  0.57585455     0.40400
C784        C  0.44804840  0.70748436  0.56808388    -0.26600
O785        O  0.51081173  0.79664653  0.58539273    -0.58500
H786        H  0.44796221  0.76141693  0.59839852     0.16100
O787        O  0.38605520  0.65567200  0.57293968    -0.59900
H788        H  0.44811656  0.69235205  0.55963281     0.14500
H789        H  0.53527491  0.81506617  0.52920250     0.46400
H790        H  0.50737664  0.81564364  0.58133393     0.41800
H791        H  0.37503364  0.65839230  0.56510079     0.45200
H792        H  0.54477851  0.73264409  0.57752084     0.36700
C793        C  0.28776214  0.50041675  0.55519414    -0.27600
C794        C  0.26187789  0.50298568  0.56295189     0.02000
C795        C  0.22315774  0.47698964  0.56107351     0.30100
C796        C  0.21084451  0.44971665  0.55134892    -0.19400
C797        C  0.23664285  0.44753632  0.54334656    -0.28800
C798        C  0.27550700  0.47316471  0.54543778     0.44200
C799        C  0.27549204  0.53475912  0.57221745     0.05300
O800        O  0.19707462  0.47827505  0.56861996    -0.57300
H801        H  0.18088358  0.43012195  0.55013747     0.18300
O802        O  0.30187735  0.47290661  0.53775138    -0.64000
H803        H  0.31765679  0.52060489  0.55637452     0.16700
C804        C  0.30197129  0.54173284  0.58161808     0.29000
C805        C  0.31592481  0.57339980  0.58970582    -0.24900
C806        C  0.30445668  0.59885289  0.58833988    -0.24200
C807        C  0.27764507  0.59160909  0.57908266     0.40400
C808        C  0.26313811  0.55960192  0.57118614    -0.26600
O809        O  0.31380329  0.51740388  0.58309664    -0.58500
H810        H  0.33661490  0.57872393  0.59679682     0.16100
O811        O  0.26470713  0.61513080  0.57793042    -0.59900
H812        H  0.24285476  0.55470019  0.56399245     0.14500
H813        H  0.30581794  0.48972932  0.53061017     0.46400
H814        H  0.33968968  0.53067428  0.57953311     0.41800
H815        H  0.27665126  0.62963376  0.57008214     0.45200
H816        H  0.19249698  0.46143869  0.57582614     0.36700
C817        C  0.31214230  0.75261496  0.57314815    -0.27600
C818        C  0.27379925  0.73922140  0.57441712     0.02000
C819        C  0.25196969  0.71139191  0.58352022     0.30100
C820        C  0.26848537  0.69708841  0.59105953    -0.19400
C821        C  0.30660936  0.70987668  0.58951837    -0.28800
C822        C  0.32848387  0.73793898  0.58053551     0.44200
C823        C  0.25683736  0.75367733  0.56587629     0.05300
O824        O  0.21443788  0.69774536  0.58502051    -0.57300
H825        H  0.25132164  0.67530364  0.59789051     0.18300
O826        O  0.36612202  0.75186659  0.57914509    -0.64000
H827        H  0.32930563  0.77394185  0.56618755     0.16700
C828        C  0.27063597  0.79248284  0.56545151     0.29000
C829        C  0.25541563  0.80575369  0.55688528    -0.24900
C830        C  0.22661723  0.78089432  0.54847430    -0.24200
C831        C  0.21308171  0.74198473  0.54886404     0.40400
C832        C  0.22792380  0.72869829  0.55758698    -0.26600
O833        O  0.29821275  0.81748732  0.57366430    -0.58500
H834        H  0.26607639  0.83565144  0.55694432     0.16100
O835        O  0.18610983  0.71670289  0.54055764    -0.59900
H836        H  0.21751128  0.69883494  0.55764270     0.14500
H837        H  0.36817225  0.73930983  0.57138083     0.46400
H838        H  0.32160706  0.83073529  0.56848900     0.41800
H839        H  0.20013334  0.71713588  0.53284296     0.45200
H840        H  0.21343323  0.71585642  0.59092814     0.36700
C841        C  0.75962263  0.47330316  0.41137736    -0.27600
C842        C  0.73781753  0.47315055  0.42161493     0.02000
C843        C  0.70102882  0.44164620  0.42331338     0.30100
C844        C  0.68678384  0.41057457  0.41499893    -0.19400
C845        C  0.70868031  0.41042300  0.40485325    -0.28800
C846        C  0.74520384  0.44233407  0.40295410     0.44200
C847        C  0.75399385  0.50529224  0.43076459     0.05300
O848        O  0.67910342  0.44063313  0.43325309    -0.57300
H849        H  0.65857686  0.38631569  0.41655246     0.18300
O850        O  0.76778586  0.44257294  0.39339338    -0.64000
H851        H  0.78802200  0.49737795  0.40998663     0.16700
C852        C  0.78529701  0.51436815  0.43815121     0.29000
C853        C  0.79918530  0.54370614  0.44717730    -0.24900
C854        C  0.78269512  0.56496580  0.44889945    -0.24200
C855        C  0.75179684  0.55632147  0.44121709     0.40400
C856        C  0.73748754  0.52643392  0.43236397    -0.26600
O857        O  0.80142677  0.49356111  0.43701770    -0.58500
H858        H  0.82264552  0.54931761  0.45297440     0.16100
O859        O  0.73559509  0.57706906  0.44207987    -0.59900
H860        H  0.71358147  0.51992321  0.42662445     0.14500
H861        H  0.76773667  0.45892005  0.38674432     0.46400
H862        H  0.82399165  0.50874996  0.43157481     0.41800
H863        H  0.75049036  0.59854288  0.43625301     0.45200
H864        H  0.68433017  0.42890230  0.44032124     0.36700
C865        C  0.73690571  0.23851439  0.44052236    -0.27600
C866        C  0.76015137  0.26142681  0.43061630     0.02000
C867        C  0.79743857  0.27067136  0.42981206     0.30100
C868        C  0.81111252  0.25713781  0.43888741    -0.19400
C869        C  0.78783256  0.23385083  0.44878816    -0.28800
C870        C  0.75040744  0.22462180  0.44955139     0.44200
C871        C  0.74557298  0.27670643  0.42147285     0.05300
O872        O  0.82077395  0.29309709  0.42022799    -0.57300
H873        H  0.83985306  0.26437742  0.43803829     0.18300
O874        O  0.72744521  0.20372821  0.45944921    -0.64000
H875        H  0.70830411  0.23174438  0.44133334     0.16700
C876        C  0.72251545  0.25444868  0.41129446     0.29000
C877        C  0.70759323  0.26900329  0.40311055    -0.24900
C878        C  0.71479274  0.30546208  0.40512364    -0.24200
C879        C  0.73850761  0.32791855  0.41518722     0.40400
C880        C  0.75375281  0.31351644  0.42324329    -0.26600
O881        O  0.71451031  0.21851588  0.40927669    -0.58500
H882        H  0.68942722  0.25137338  0.39542603     0.16100
O883        O  0.74691676  0.36398266  0.41726965    -0.59900
H884        H  0.77157224  0.33091326  0.43102984     0.14500
H885        H  0.70907072  0.17853921  0.45572344     0.46400
H886        H  0.69101264  0.20194585  0.41414248     0.41800
H887        H  0.76747037  0.37986782  0.41118235     0.45200
H888        H  0.81638133  0.27545043  0.41308271     0.36700
C889        C  0.53926911  0.28117741  0.41063972    -0.27600
C890        C  0.53751233  0.25962497  0.42096071     0.02000
C891        C  0.56726312  0.25435735  0.42289492     0.30100
C892        C  0.59865343  0.27139932  0.41480107    -0.19400
C893        C  0.60078874  0.29353590  0.40462647    -0.28800
C894        C  0.57061081  0.29807990  0.40249102     0.44200
C895        C  0.50586507  0.24479016  0.43016821     0.05300
O896        O  0.56633760  0.23339974  0.43287664    -0.57300
H897        H  0.62159890  0.26757684  0.41654568     0.18300
O898        O  0.57203528  0.32005149  0.39276780    -0.64000
H899        H  0.51655883  0.28545578  0.40904747     0.16700
C900        C  0.49997926  0.26964880  0.43739281     0.29000
C901        C  0.47165847  0.25556067  0.44668103    -0.24900
C902        C  0.44821910  0.21653176  0.44885499    -0.24200
C903        C  0.45364434  0.19153683  0.44134894     0.40400
C904        C  0.48239684  0.20580884  0.43215086    -0.26600
O905        O  0.52296578  0.30796887  0.43584407    -0.58500
H906        H  0.46854556  0.27552350  0.45232661     0.16100
O907        O  0.43017202  0.15314152  0.44249851    -0.59900
H908        H  0.48634334  0.18634405  0.42651215     0.14500
H909        H  0.58600756  0.34625791  0.39623134     0.46400
H910        H  0.50855343  0.31483133  0.43045637     0.41800
H911        H  0.44518001  0.14498405  0.44688629     0.45200
H912        H  0.57791617  0.25159711  0.44007891     0.36700
C913        C  0.75637432  0.40601774  0.23490684    -0.27600
C914        C  0.78431686  0.39782063  0.23569851     0.02000
C915        C  0.78252737  0.37455527  0.24548503     0.30100
C916        C  0.75247687  0.35911760  0.25416285    -0.19400
C917        C  0.72375941  0.36615806  0.25305682    -0.28800
C918        C  0.72618022  0.39030048  0.24347064     0.44200
C919        C  0.81479290  0.41327323  0.22609524     0.05300
O920        O  0.81040277  0.36742897  0.24675529    -0.57300
H921        H  0.75101784  0.34072046  0.26152434     0.18300
O922        O  0.69910121  0.39859555  0.24234091    -0.64000
H923        H  0.75764958  0.42411735  0.22746487     0.16700
C924        C  0.81864220  0.38916382  0.21766829     0.29000
C925        C  0.84755384  0.40433551  0.20859394    -0.24900
C926        C  0.87261283  0.44360551  0.20760266    -0.24200
C927        C  0.86835653  0.46774309  0.21597747     0.40400
C928        C  0.83946242  0.45247758  0.22507455    -0.26600
O929        O  0.79397208  0.35074988  0.21812664    -0.58500
H930        H  0.85007332  0.38528408  0.20220208     0.16100
O931        O  0.89277102  0.50619268  0.21562857    -0.59900
H932        H  0.83660983  0.47128580  0.23149027     0.14500
H933        H  0.70610592  0.41939172  0.24855439     0.46400
H934        H  0.77316090  0.34518473  0.21237355     0.41800
H935        H  0.91372769  0.51177428  0.22131026     0.45200
H936        H  0.79926231  0.34098808  0.24374391     0.36700
C937        C  0.61726719  0.20020271  0.24323419    -0.27600
C938        C  0.58940934  0.19416068  0.23459994     0.02000
C939        C  0.57398572  0.21657808  0.23561734     0.30100
C940        C  0.58634662  0.24435836  0.24509930    -0.19400
C941        C  0.61522200  0.25157489  0.25333397    -0.28800
C942        C  0.63038165  0.22891256  0.25252362     0.44200
C943        C  0.57573839  0.16396649  0.22474566     0.05300
O944        O  0.54725259  0.21201188  0.22723425    -0.57300
H945        H  0.57331998  0.26038121  0.24599135     0.18300
O946        O  0.65827954  0.23492390  0.26061819    -0.64000
H947        H  0.62897410  0.18277669  0.24272092     0.16700
C948        C  0.60068356  0.16199783  0.21621281     0.29000
C949        C  0.58672381  0.13335269  0.20691259    -0.24900
C950        C  0.54789654  0.10675822  0.20581067    -0.24200
C951        C  0.52300355  0.10881783  0.21436725     0.40400
C952        C  0.53701279  0.13715680  0.22372616    -0.26600
O953        O  0.63864621  0.18821302  0.21675871    -0.58500
H954        H  0.60630147  0.13231946  0.20040680     0.16100
O955        O  0.48500208  0.08278527  0.21392037    -0.59900
H956        H  0.51749092  0.13796744  0.23032538     0.14500
H957        H  0.68204359  0.25514619  0.25665482     0.46400
H958        H  0.64297748  0.20914807  0.21128557     0.41800
H959        H  0.48054946  0.06218668  0.21959134     0.45200
H960        H  0.56158645  0.22941825  0.22017029     0.36700
C961        C  0.60035370  0.40879253  0.25231126    -0.27600
C962        C  0.58280872  0.39155625  0.24075989     0.02000
C963        C  0.58005934  0.35816576  0.23680273     0.30100
C964        C  0.59545109  0.34274857  0.24420736    -0.19400
C965        C  0.61309793  0.35953124  0.25583972    -0.28800
C966        C  0.61557057  0.39310100  0.25984304     0.44200
C967        C  0.56905660  0.40926181  0.23242498     0.05300
O968        O  0.56346850  0.34107216  0.22545442    -0.57300
H969        H  0.59388037  0.31782514  0.24061038     0.18300
O970        O  0.63426515  0.41182170  0.27073832    -0.64000
H971        H  0.60299459  0.43489840  0.25533712     0.16700
C972        C  0.53148147  0.39908631  0.23306686     0.29000
C973        C  0.51825764  0.41403902  0.22439308    -0.24900
C974        C  0.54217452  0.43922821  0.21496583    -0.24200
C975        C  0.57977591  0.44886760  0.21427157     0.40400
C976        C  0.59295858  0.43407905  0.22301829    -0.26600
O977        O  0.50723836  0.37373455  0.24190820    -0.58500
H978        H  0.48927135  0.40606625  0.22512547     0.16100
O979        O  0.60362514  0.47173697  0.20486499    -0.59900
H980        H  0.62172150  0.44128043  0.22227800     0.14500
H981        H  0.66103264  0.42828597  0.26815812     0.46400
H982        H  0.51119241  0.38897770  0.24972527     0.41800
H983        H  0.59900633  0.45454345  0.19754676     0.45200
H984        H  0.53632256  0.32402271  0.22746076     0.36700
C985        C  0.68221389  0.36455418  0.31509057    -0.27600
C986        C  0.66420384  0.33194843  0.32245878     0.02000
C987        C  0.64133940  0.29661969  0.31646481     0.30100
C988        C  0.63732888  0.29403969  0.30322084    -0.19400
C989        C  0.65637028  0.32653096  0.29559090    -0.28800
C990        C  0.67823975  0.36215443  0.30183358     0.44200
C991        C  0.66922241  0.33481304  0.33642557     0.05300
O992        O  0.62176311  0.26446481  0.32355788    -0.57300
H993        H  0.61864677  0.26630173  0.29919529     0.18300
O994        O  0.69666579  0.39491065  0.29501616    -0.64000
H995        H  0.69965040  0.39200253  0.31963428     0.16700
C996        C  0.69147346  0.32374239  0.34217543     0.29000
C997        C  0.69435051  0.32457015  0.35545071    -0.24900
C998        C  0.67487342  0.33613688  0.36333566    -0.24200
C999        C  0.65388287  0.34886782  0.35735236     0.40400
C1000       C  0.65098787  0.34782528  0.34406861    -0.26600
O1001       O  0.71129736  0.31289858  0.33483734    -0.58500
H1002       H  0.71215481  0.31616134  0.35930306     0.16100
O1003       O  0.63508261  0.36139131  0.36445289    -0.59900
H1004       H  0.63398601  0.35673711  0.33972137     0.14500
H1005       H  0.67962068  0.40433170  0.29514731     0.46400
H1006       H  0.69672290  0.28493100  0.33522026     0.41800
H1007       H  0.65124697  0.38936102  0.36420947     0.45200
H1008       H  0.63599973  0.25199296  0.32265108     0.36700
loop_ 
_geom_bond_atom_site_label_1 
_geom_bond_atom_site_label_2 
_geom_bond_distance 
_geom_bond_site_symmetry_2 
_ccdc_geom_bond_type 
C1            C2   1.551       .  S
C1            C7   1.546       .  S
C1            C5   1.543       .  S
C1          C989   1.538       .  S
C2            H9   1.082       .  S
C2            C3   1.363       .  D
C3            C4   1.531       .  S
C3          C941   1.477       .  S
C4            C8   1.534       .  S
C4            C6   1.530       .  S
C4           H10   1.110       .  S
C5           H11   1.086       .  S
C5            C6   1.364       .  D
C6          C917   1.478       .  S
C7           H12   1.085       .  S
C7            C8   1.370       .  D
C8          C965   1.494       .  S
C13          C14   1.543       .  S
C13          C19   1.554       .  S
C13          C17   1.542       .  S
C13         C998   1.539       .  S
C14          H21   1.086       .  S
C14          C15   1.365       .  D
C15          C16   1.533       .  S
C15         C893   1.482       .  S
C16          C20   1.532       .  S
C16          C18   1.533       .  S
C16          H22   1.111       .  S
C17          H23   1.086       .  S
C17          C18   1.366       .  D
C18         C845   1.482       .  S
C19          H24   1.081       .  S
C19          C20   1.368       .  D
C20         C878   1.485       .  S
N25          N26   1.320       .  A
N25          C29   1.348       .  A
N25         Cu33   2.083       .  S
N26          C27   1.341       .  A
N26         Cu32   2.051       .  S
C27          C28   1.379       .  A
C27          H30   1.082       .  S
C28          C29   1.387       .  A
C28          C86   1.469   1_565  S
C29          H31   1.082       .  S
Cu32         N35   2.051       .  S
Cu33         N43   2.085       .  S
Cu34         N36   2.084       .  S
Cu34         N42   2.086       .  S
N35          N36   1.321       .  A
N35          C39   1.339       .  A
N36          C37   1.349       .  A
C37          C38   1.387       .  A
C37          H40   1.082       .  S
C38          C39   1.377       .  A
C38          C62   1.468   1_455  S
C39          H41   1.082       .  S
N42          N43   1.324       .  A
N42          C46   1.346       .  A
N43          C44   1.345       .  A
C44          C45   1.388       .  A
C44          H47   1.082       .  S
C45          C46   1.388       .  A
C45         C830   1.490       .  S
C46          H48   1.081       .  S
N49          N50   1.322       .  A
N49          C53   1.346       .  A
N49         Cu57   2.074       .  S
N50          C51   1.344       .  A
N50         Cu56   2.068       .  S
C51          C52   1.381       .  A
C51          H54   1.082       .  S
C52          C53   1.382       .  A
C52         C148   1.467       .  S
C53          H55   1.082       .  S
Cu56         N59   2.068       .  S
Cu57         N67   2.075       .  S
Cu58         N60   2.069       .  S
Cu58         N66   2.070       .  S
N59          N60   1.321       .  A
N59          C63   1.341       .  A
N60          C61   1.347       .  A
C61          C62   1.383       .  A
C61          H64   1.082       .  S
C62          C63   1.382       .  A
C63          H65   1.082       .  S
N66          N67   1.321       .  A
N66          C70   1.343       .  A
N67          C68   1.345       .  A
C68          C69   1.389       .  A
C68          H71   1.080       .  S
C69          C70   1.387       .  A
C69         C854   1.488       .  S
C70          H72   1.081       .  S
N73          N74   1.322       .  A
N73          C77   1.347       .  A
N73         Cu81   2.077       .  S
N74          C75   1.344       .  A
N74         Cu80   2.075       .  S
C75          C76   1.382       .  A
C75          H78   1.082       .  S
C76          C77   1.384       .  A
C76         C100   1.470       .  S
C77          H79   1.082       .  S
Cu80         N83   2.076       .  S
Cu81         N91   2.078       .  S
Cu82         N84   2.071       .  S
Cu82         N90   2.072       .  S
N83          N84   1.322       .  A
N83          C87   1.344       .  A
N84          C85   1.346       .  A
C85          C86   1.382       .  A
C85          H88   1.082       .  S
C86          C87   1.383       .  A
C87          H89   1.082       .  S
N90          N91   1.321       .  A
N90          C94   1.345       .  A
N91          C92   1.344       .  A
C92          C93   1.388       .  A
C92          H95   1.081       .  S
C93          C94   1.389       .  A
C93         C902   1.490       .  S
C94          H96   1.080       .  S
N97          N98   1.322       .  A
N97         C101   1.348       .  A
N97        Cu105   2.081       .  S
N98          C99   1.344       .  A
N98        Cu104   2.071       .  S
C99         C100   1.381       .  A
C99         H102   1.082       .  S
C100        C101   1.385       .  A
C101        H103   1.082       .  S
Cu104       N107   2.071       .  S
Cu105       N115   2.082       .  S
Cu106       N108   2.077       .  S
Cu106       N114   2.078       .  S
N107        N108   1.322       .  A
N107        C111   1.343       .  A
N108        C109   1.348       .  A
C109        C110   1.385       .  A
C109        H112   1.082       .  S
C110        C111   1.382       .  A
C110        C124   1.472   1_455  S
C111        H113   1.082       .  S
N114        N115   1.323       .  A
N114        C118   1.344       .  A
N115        C116   1.346       .  A
C116        C117   1.389       .  A
C116        H119   1.081       .  S
C117        C118   1.387       .  A
C117        C797   1.489       .  S
C118        H120   1.082       .  S
N121        N122   1.321       .  A
N121        C125   1.349       .  A
N121       Cu129   2.086       .  S
N122        C123   1.342       .  A
N122       Cu128   2.059       .  S
C123        C124   1.380       .  A
C123        H126   1.082       .  S
C124        C125   1.387       .  A
C125        H127   1.082       .  S
Cu128       N131   2.059       .  S
Cu129       N139   2.088       .  S
Cu130       N132   2.085       .  S
Cu130       N138   2.087       .  S
N131        N132   1.322       .  A
N131        C135   1.341       .  A
N132        C133   1.349       .  A
C133        C134   1.387       .  A
C133        H136   1.082       .  S
C134        C135   1.379       .  A
C134        C158   1.470   1_545  S
C135        H137   1.082       .  S
N138        N139   1.324       .  A
N138        C142   1.347       .  A
N139        C140   1.346       .  A
C140        C141   1.386       .  A
C140        H143   1.082       .  S
C141        C142   1.387       .  A
C141        C869   1.486       .  S
C142        H144   1.081       .  S
N145        N146   1.323       .  A
N145        C149   1.346       .  A
N145       Cu153   2.074       .  S
N146        C147   1.344       .  A
N146       Cu152   2.071       .  S
C147        C148   1.381       .  A
C147        H150   1.082       .  S
C148        C149   1.382       .  A
C149        H151   1.082       .  S
Cu152       N155   2.071       .  S
Cu153       N163   2.075       .  S
Cu154       N156   2.067       .  S
Cu154       N162   2.068       .  S
N155        N156   1.321       .  A
N155        C159   1.343       .  A
N156        C157   1.347       .  A
C157        C158   1.383       .  A
C157        H160   1.082       .  S
C158        C159   1.383       .  A
C159        H161   1.082       .  S
N162        N163   1.322       .  A
N162        C166   1.342       .  A
N163        C164   1.345       .  A
C164        C165   1.388       .  A
C164        H167   1.082       .  S
C165        C166   1.385       .  A
C165        C773   1.484       .  S
C166        H168   1.081       .  S
N169        N170   1.322       .  A
N169        C173   1.349       .  A
N169       Cu177   2.077       .  S
N170        C171   1.339       .  A
N170       Cu176   2.060       .  S
C171        C172   1.379       .  A
C171        H174   1.082       .  S
C172        C173   1.385       .  A
C172        C278   1.468       .  S
C173        H175   1.082       .  S
Cu176       N179   2.059       .  S
Cu177       N187   2.079       .  S
Cu178       N180   2.077       .  S
Cu178       N186   2.079       .  S
N179        N180   1.320       .  A
N179        C183   1.342       .  A
N180        C181   1.347       .  A
C181        C182   1.385       .  A
C181        H184   1.082       .  S
C182        C183   1.381       .  A
C182        C230   1.469       .  S
C183        H185   1.082       .  S
N186        N187   1.323       .  A
N186        C190   1.345       .  A
N187        C188   1.345       .  A
C188        C189   1.386       .  A
C188        H191   1.081       .  S
C189        C190   1.386       .  A
C189        C974   1.485       .  S
C190        H192   1.082       .  S
N193        N194   1.321       .  A
N193        C197   1.347       .  A
N193       Cu201   2.073   1_455  S
N194        C195   1.344       .  A
N194       Cu200   2.072       .  S
C195        C196   1.383       .  A
C195        H198   1.082       .  S
C196        C197   1.384       .  A
C196        C220   1.471       .  S
C197        H199   1.082       .  S
Cu200       N203   2.072       .  S
Cu201       N211   2.074       .  S
Cu202       N204   2.072   1_655  S
Cu202       N210   2.072       .  S
N203        N204   1.322       .  A
N203        C207   1.341       .  A
N204        C205   1.348       .  A
C205        C206   1.384       .  A
C205        H208   1.082       .  S
C206        C207   1.382       .  A
C206        C302   1.470       .  S
C207        H209   1.082       .  S
N210        N211   1.322       .  A
N210        C214   1.345       .  A
N211        C212   1.343       .  A
C212        C213   1.384       .  A
C212        H215   1.082       .  S
C213        C214   1.386       .  A
C213        C926   1.481       .  S
C214        H216   1.081       .  S
N217        N218   1.322       .  A
N217        C221   1.348       .  A
N217       Cu225   2.085       .  S
N218        C219   1.343       .  A
N218       Cu224   2.067       .  S
C219        C220   1.380       .  A
C219        H222   1.082       .  S
C220        C221   1.386       .  A
C221        H223   1.082       .  S
Cu224       N227   2.067       .  S
Cu225       N235   2.086       .  S
Cu226       N228   2.071       .  S
Cu226       N234   2.072       .  S
N227        N228   1.321       .  A
N227        C231   1.343       .  A
N228        C229   1.347       .  A
C229        C230   1.384       .  A
C229        H232   1.082       .  S
C230        C231   1.382       .  A
C231        H233   1.082       .  S
N234        N235   1.323       .  A
N234        C238   1.343       .  A
N235        C236   1.347       .  A
C236        C237   1.389       .  A
C236        H239   1.081       .  S
C237        C238   1.385       .  A
C237        C758   1.487       .  S
C238        H240   1.082       .  S
N241        N242   1.322       .  A
N241        C245   1.345       .  A
N241       Cu249   2.069       .  S
N242        C243   1.343       .  A
N242       Cu248   2.065       .  S
C243        C244   1.381       .  A
C243        H246   1.082       .  S
C244        C245   1.381       .  A
C244        C268   1.465       .  S
C245        H247   1.082       .  S
Cu248       N251   2.065       .  S
Cu249       N259   2.069   1_565  S
Cu250       N252   2.066       .  S
Cu250       N258   2.067   1_565  S
N251        N252   1.322       .  A
N251        C255   1.342       .  A
N252        C253   1.345       .  A
C253        C254   1.382       .  A
C253        H256   1.082       .  S
C254        C255   1.381       .  A
C254        C292   1.465       .  S
C255        H257   1.082       .  S
N258        N259   1.321       .  A
N258        C262   1.343       .  A
N259        C260   1.344       .  A
C260        C261   1.384       .  A
C260        H263   1.082       .  S
C261        C262   1.385       .  A
C261        C950   1.479       .  S
C262        H264   1.081       .  S
N265        N266   1.321       .  A
N265        C269   1.348       .  A
N265       Cu273   2.085       .  S
N266        C267   1.341       .  A
N266       Cu272   2.053       .  S
C267        C268   1.377       .  A
C267        H270   1.082       .  S
C268        C269   1.385       .  A
C269        H271   1.082       .  S
Cu272       N275   2.053       .  S
Cu273       N283   2.087       .  S
Cu274       N276   2.078       .  S
Cu274       N282   2.080       .  S
N275        N276   1.320       .  A
N275        C279   1.339       .  A
N276        C277   1.349       .  A
C277        C278   1.386       .  A
C277        H280   1.082       .  S
C278        C279   1.379       .  A
C279        H281   1.082       .  S
N282        N283   1.325       .  A
N282        C286   1.345       .  A
N283        C284   1.347       .  A
C284        C285   1.385       .  A
C284        H287   1.082       .  S
C285        C286   1.382       .  A
C285        C734   1.480       .  S
C286        H288   1.082       .  S
N289        N290   1.320       .  A
N289        C293   1.345       .  A
N289       Cu297   2.061       .  S
N290        C291   1.341       .  A
N290       Cu296   2.056       .  S
C291        C292   1.380       .  A
C291        H294   1.082       .  S
C292        C293   1.383       .  A
C293        H295   1.082       .  S
Cu296       N299   2.056       .  S
Cu297       N307   2.062       .  S
Cu298       N300   2.083       .  S
Cu298       N306   2.084       .  S
N299        N300   1.322       .  A
N299        C303   1.339       .  A
N300        C301   1.349       .  A
C301        C302   1.387       .  A
C301        H304   1.082       .  S
C302        C303   1.378       .  A
C303        H305   1.082       .  S
N306        N307   1.323       .  A
N306        C310   1.345       .  A
N307        C308   1.342       .  A
C308        C309   1.382       .  A
C308        H311   1.081       .  S
C309        C310   1.387       .  A
C309        C710   1.479       .  S
C310        H312   1.082       .  S
C313        C314   1.543   1_445  S
C313        C319   1.549   1_545  S
C313        C317   1.540       .  S
C313        C677   1.534       .  S
C314        H321   1.086       .  S
C314        C315   1.361       .  D
C315        C316   1.530   1_665  S
C315        C725   1.473       .  S
C316        C320   1.533   1_545  S
C316        C318   1.534       .  S
C316        H322   1.111       .  S
C317        H323   1.086       .  S
C317        C318   1.366       .  D
C318        C749   1.481       .  S
C319        H324   1.081       .  S
C319        C320   1.367       .  D
C320        C701   1.481       .  S
C325        C326   1.547   1_545  S
C325        C331   1.539       .  S
C325        C329   1.549   1_655  S
C325        C686   1.536       .  S
C326        H333   1.081       .  S
C326        C327   1.362       .  D
C327        C328   1.531   1_565  S
C327        C638   1.478       .  S
C328        C332   1.533       .  S
C328        C330   1.533   1_655  S
C328        H334   1.110       .  S
C329        H335   1.086       .  S
C329        C330   1.369       .  D
C330        C614   1.483       .  S
C331        H336   1.086       .  S
C331        C332   1.364       .  D
C332        C653   1.482       .  S
C337        C338   1.543       .  S
C337        C343   1.541       .  S
C337        C341   1.550       .  S
C337        C581   1.535       .  S
C338        H345   1.086       .  S
C338        C339   1.364       .  D
C339        C340   1.534       .  S
C339        C806   1.479       .  S
C340        C344   1.532       .  S
C340        C342   1.535       .  S
C340        H346   1.109       .  S
C341        H347   1.081       .  S
C341        C342   1.368       .  D
C342        C782   1.487       .  S
C343        H348   1.086       .  S
C343        C344   1.363       .  D
C344        C821   1.480       .  S
C349        C350   1.550       .  S
C349        C355   1.545       .  S
C349        C353   1.540       .  S
C349        C590   1.533       .  S
C350        H357   1.084       .  S
C350        C351   1.366       .  D
C351        C352   1.529       .  S
C351        C533   1.475       .  S
C352        C356   1.528       .  S
C352        C354   1.531       .  S
C352        H358   1.111       .  S
C353        H359   1.086       .  S
C353        C354   1.366       .  D
C354        C509   1.482       .  S
C355        H360   1.085       .  S
C355        C356   1.363       .  D
C356        C566   1.472       .  S
N361        N362   1.322       .  A
N361        C365   1.350       .  A
N361       Cu369   2.084   1_545  S
N362        C363   1.344       .  A
N362       Cu368   2.077       .  S
C363        C364   1.383       .  A
C363        H366   1.082       .  S
C364        C365   1.386       .  A
C364        C388   1.474       .  S
C365        H367   1.082       .  S
Cu368       N371   2.077       .  S
Cu369       N379   2.085       .  S
Cu370       N372   2.069   1_565  S
Cu370       N378   2.070       .  S
N371        N372   1.322       .  A
N371        C375   1.344       .  A
N372        C373   1.346       .  A
C373        C374   1.382       .  A
C373        H376   1.082       .  S
C374        C375   1.383       .  A
C374        C470   1.470       .  S
C375        H377   1.082       .  S
N378        N379   1.322       .  A
N378        C382   1.345       .  A
N379        C380   1.344       .  A
C380        C381   1.388       .  A
C380        H383   1.081       .  S
C381        C382   1.385       .  A
C381        C518   1.485       .  S
C382        H384   1.082       .  S
N385        N386   1.322       .  A
N385        C389   1.351       .  A
N385       Cu393   2.094       .  S
N386        C387   1.342       .  A
N386       Cu392   2.064       .  S
C387        C388   1.380       .  A
C387        H390   1.082       .  S
C388        C389   1.389       .  A
C389        H391   1.082       .  S
Cu392       N395   2.063       .  S
Cu393       N403   2.095       .  S
Cu394       N396   2.067       .  S
Cu394       N402   2.069       .  S
N395        N396   1.321       .  A
N395        C399   1.342       .  A
N396        C397   1.346       .  A
C397        C398   1.383       .  A
C397        H400   1.082       .  S
C398        C399   1.381       .  A
C398        C494   1.466       .  S
C399        H401   1.082       .  S
N402        N403   1.323       .  A
N402        C406   1.343       .  A
N403        C404   1.347       .  A
C404        C405   1.391       .  A
C404        H407   1.081       .  S
C405        C406   1.386       .  A
C405        C605   1.492       .  S
C406        H408   1.080       .  S
N409        N410   1.322       .  A
N409        C413   1.349       .  A
N409       Cu417   2.084       .  S
N410        C411   1.342       .  A
N410       Cu416   2.060       .  S
C411        C412   1.379       .  A
C411        H414   1.082       .  S
C412        C413   1.386       .  A
C412        C436   1.468       .  S
C413        H415   1.082       .  S
Cu416       N419   2.061       .  S
Cu417       N427   2.085   1_655  S
Cu418       N420   2.073       .  S
Cu418       N426   2.074   1_655  S
N419        N420   1.321       .  A
N419        C423   1.341       .  A
N420        C421   1.348       .  A
C421        C422   1.384       .  A
C421        H424   1.082       .  S
C422        C423   1.380       .  A
C422        C460   1.468       .  S
C423        H425   1.082       .  S
N426        N427   1.323       .  A
N426        C430   1.344       .  A
N427        C428   1.346       .  A
C428        C429   1.387       .  A
C428        H431   1.082       .  S
C429        C430   1.384       .  A
C429        C542   1.484       .  S
C430        H432   1.081       .  S
N433        N434   1.321       .  A
N433        C437   1.347       .  A
N433       Cu441   2.072       .  S
N434        C435   1.342       .  A
N434       Cu440   2.063       .  S
C435        C436   1.381       .  A
C435        H438   1.082       .  S
C436        C437   1.384       .  A
C437        H439   1.082       .  S
Cu440       N443   2.062       .  S
Cu441       N451   2.073       .  S
Cu442       N444   2.073       .  S
Cu442       N450   2.074       .  S
N443        N444   1.322       .  A
N443        C447   1.340       .  A
N444        C445   1.348       .  A
C445        C446   1.385       .  A
C445        H448   1.082       .  S
C446        C447   1.379       .  A
C446        C484   1.468       .  S
C447        H449   1.082       .  S
N450        N451   1.322       .  A
N450        C454   1.344       .  A
N451        C452   1.343       .  A
C452        C453   1.387       .  A
C452        H455   1.081       .  S
C453        C454   1.388       .  A
C453        C629   1.486       .  S
C454        H456   1.080       .  S
N457        N458   1.321       .  A
N457        C461   1.349       .  A
N457       Cu465   2.083       .  S
N458        C459   1.340       .  A
N458       Cu464   2.053       .  S
C459        C460   1.378       .  A
C459        H462   1.082       .  S
C460        C461   1.386       .  A
C461        H463   1.082       .  S
Cu464       N467   2.054       .  S
Cu465       N475   2.084       .  S
Cu466       N468   2.088       .  S
Cu466       N474   2.090       .  S
N467        N468   1.321       .  A
N467        C471   1.342       .  A
N468        C469   1.349       .  A
C469        C470   1.387       .  A
C469        H472   1.082       .  S
C470        C471   1.379       .  A
C471        H473   1.082       .  S
N474        N475   1.324       .  A
N474        C478   1.346       .  A
N475        C476   1.346       .  A
C476        C477   1.386       .  A
C476        H479   1.082       .  S
C477        C478   1.388       .  A
C477        C662   1.489       .  S
C478        H480   1.081       .  S
N481        N482   1.321       .  A
N481        C485   1.348       .  A
N481       Cu489   2.074       .  S
N482        C483   1.340       .  A
N482       Cu488   2.060       .  S
C483        C484   1.380       .  A
C483        H486   1.082       .  S
C484        C485   1.385       .  A
C485        H487   1.082       .  S
Cu488       N491   2.060       .  S
Cu489       N499   2.075       .  S
Cu490       N492   2.071       .  S
Cu490       N498   2.072       .  S
N491        N492   1.321       .  A
N491        C495   1.342       .  A
N492        C493   1.346       .  A
C493        C494   1.383       .  A
C493        H496   1.082       .  S
C494        C495   1.380       .  A
C495        H497   1.082       .  S
N498        N499   1.322       .  A
N498        C502   1.344       .  A
N499        C500   1.344       .  A
C500        C501   1.386       .  A
C500        H503   1.081       .  S
C501        C502   1.386       .  A
C501        C557   1.484       .  S
C502        H504   1.082       .  S
C505        C506   1.402       .  A
C505        C510   1.399       .  A
C505        H515   1.084       .  S
C506        C507   1.405       .  A
C506        C511   1.476       .  S
C507        C508   1.400       .  A
C507        O512   1.372       .  S
C508        C509   1.405       .  A
C508        H513   1.084       .  S
C509        C510   1.410       .  A
C510        O514   1.372       .  S
C511        C516   1.405       .  A
C511        C520   1.400       .  A
O512        H528   0.992       .  S
O514        H525   0.992       .  S
C516        C517   1.403       .  A
C516        O521   1.372       .  S
C517        C518   1.408       .  A
C517        H522   1.083       .  S
C518        C519   1.411       .  A
C519        C520   1.399       .  A
C519        O523   1.372       .  S
C520        H524   1.084       .  S
O521        H526   0.992       .  S
O523        H527   0.992       .  S
C529        C530   1.404       .  A
C529        C534   1.402       .  A
C529        H539   1.084       .  S
C530        C531   1.405       .  A
C530        C535   1.476       .  S
C531        C532   1.398       .  A
C531        O536   1.371       .  S
C532        C533   1.402       .  A
C532        H537   1.084       .  S
C533        C534   1.407       .  A
C534        O538   1.371       .  S
C535        C540   1.405       .  A
C535        C544   1.401       .  A
O536        H552   0.992       .  S
O538        H549   0.992       .  S
C540        C541   1.400       .  A
C540        O545   1.371       .  S
C541        C542   1.406       .  A
C541        H546   1.083       .  S
C542        C543   1.413       .  A
C543        C544   1.400       .  A
C543        O547   1.371       .  S
C544        H548   1.084       .  S
O545        H550   0.991       .  S
O547        H551   0.992       .  S
C553        C554   1.402       .  A
C553        C558   1.398       .  A
C553        H563   1.084       .  S
C554        C555   1.406       .  A
C554        C559   1.480       .  S
C555        C556   1.401       .  A
C555        O560   1.373       .  S
C556        C557   1.407       .  A
C556        H561   1.083       .  S
C557        C558   1.412       .  A
C558        O562   1.371       .  S
C559        C564   1.410       .  A
C559        C568   1.404       .  A
O560        H576   0.992       .  S
O562        H573   0.992       .  S
C564        C565   1.399       .  A
C564        O569   1.371       .  S
C565        C566   1.400       .  A
C565        H570   1.084       .  S
C566        C567   1.406       .  A
C567        C568   1.398       .  A
C567        O571   1.372       .  S
C568        H572   1.084       .  S
O569        H574   0.992       .  S
O571        H575   0.992       .  S
C577        C578   1.404       .  A
C577        C582   1.400       .  A
C577        H587   1.083       .  S
C578        C579   1.410       .  A
C578        C583   1.494       .  S
C579        C580   1.400       .  A
C579        O584   1.372       .  S
C580        C581   1.411       .  A
C580        H585   1.077       .  S
C581        C582   1.416       .  A
C582        O586   1.372       .  S
C583        C588   1.410       .  A
C583        C592   1.403       .  A
O584        H600   0.992       .  S
O586        H597   0.992       .  S
C588        C589   1.401       .  A
C588        O593   1.372       .  S
C589        C590   1.410       .  A
C589        H594   1.081       .  S
C590        C591   1.417       .  A
C591        C592   1.399       .  A
C591        O595   1.371       .  S
C592        H596   1.083       .  S
O593        H598   0.992       .  S
O595        H599   0.992       .  S
C601        C602   1.400       .  A
C601        C606   1.402       .  A
C601        H611   1.084       .  S
C602        C603   1.405       .  A
C602        C607   1.479       .  S
C603        C604   1.400       .  A
C603        O608   1.372       .  S
C604        C605   1.408       .  A
C604        H609   1.082       .  S
C605        C606   1.415       .  A
C606        O610   1.371       .  S
C607        C612   1.409       .  A
C607        C616   1.399       .  A
O608        H624   0.992       .  S
O610        H621   0.992       .  S
C612        C613   1.405       .  A
C612        O617   1.371       .  S
C613        C614   1.404       .  A
C613        H618   1.083       .  S
C614        C615   1.410       .  A
C615        C616   1.397       .  A
C615        O619   1.371   1_545  S
C616        H620   1.084       .  S
O617        H622   0.992       .  S
O619        H623   0.991       .  S
C625        C626   1.400       .  A
C625        C630   1.398       .  A
C625        H635   1.084       .  S
C626        C627   1.405       .  A
C626        C631   1.477       .  S
C627        C628   1.398       .  A
C627        O632   1.372       .  S
C628        C629   1.407       .  A
C628        H633   1.082       .  S
C629        C630   1.414       .  A
C630        O634   1.370       .  S
C631        C636   1.408       .  A
C631        C640   1.402       .  A
O632        H648   0.992       .  S
O634        H645   0.992       .  S
C636        C637   1.397       .  A
C636        O641   1.372       .  S
C637        C638   1.401       .  A
C637        H642   1.084       .  S
C638        C639   1.411       .  A
C639        C640   1.398       .  A
C639        O643   1.372       .  S
C640        H644   1.084       .  S
O641        H646   0.992       .  S
O643        H647   0.991   1_655  S
C649        C650   1.403       .  A
C649        C654   1.403       .  A
C649        H659   1.084       .  S
C650        C651   1.409       .  A
C650        C655   1.484       .  S
C651        C652   1.401       .  A
C651        O656   1.371       .  S
C652        C653   1.403       .  A
C652        H657   1.084       .  S
C653        C654   1.408       .  A
C654        O658   1.372   1_655  S
C655        C660   1.407       .  A
C655        C664   1.402       .  A
O656        H672   0.992       .  S
O658        H669   0.992       .  S
C660        C661   1.403       .  A
C660        O665   1.372       .  S
C661        C662   1.408       .  A
C661        H666   1.083       .  S
C662        C663   1.412       .  A
C663        C664   1.401       .  A
C663        O667   1.371       .  S
C664        H668   1.084       .  S
O665        H670   0.992       .  S
O667        H671   0.992       .  S
C673        C674   1.398   1_655  A
C673        C678   1.401       .  A
C673        H683   1.084       .  S
C674        C675   1.402   1_545  A
C674        C679   1.475   1_454  S
C675        C676   1.399       .  A
C675        O680   1.372       .  S
C676        C677   1.413   1_565  A
C676        H681   1.077       .  S
C677        C678   1.419   1_455  A
C678        O682   1.372       .  S
C679        C684   1.401   1_545  A
C679        C688   1.398   1_655  A
O680        H696   0.992       .  S
O682        H693   0.992       .  S
C684        C685   1.398       .  A
C684        O689   1.372       .  S
C685        C686   1.415   1_565  A
C685        H690   1.077       .  S
C686        C687   1.417   1_655  A
C687        C688   1.402       .  A
C687        O691   1.371       .  S
C688        H692   1.084       .  S
O689        H694   0.991       .  S
O691        H695   0.992       .  S
C697        C698   1.401       .  A
C697        C702   1.400       .  A
C697        H707   1.084       .  S
C698        C699   1.404       .  A
C698        C703   1.472       .  S
C699        C700   1.396       .  A
C699        O704   1.372       .  S
C700        C701   1.403       .  A
C700        H705   1.082   1_455  S
C701        C702   1.411       .  A
C702        O706   1.372   1_565  S
C703        C708   1.405       .  A
C703        C712   1.400       .  A
O704        H720   0.992   1_455  S
O706        H717   0.992       .  S
C708        C709   1.397       .  A
C708        O713   1.372       .  S
C709        C710   1.405       .  A
C709        H714   1.083       .  S
C710        C711   1.413       .  A
C711        C712   1.399       .  A
C711        O715   1.371       .  S
C712        H716   1.084       .  S
O713        H718   0.992       .  S
O715        H719   0.992       .  S
C721        C722   1.408       .  A
C721        C726   1.402       .  A
C721        H731   1.083       .  S
C722        C723   1.413       .  A
C722        C727   1.492       .  S
C723        C724   1.399       .  A
C723        O728   1.371       .  S
C724        C725   1.398       .  A
C724        H729   1.084   1_565  S
C725        C726   1.405       .  A
C726        O730   1.372       .  S
C727        C732   1.412       .  A
C727        C736   1.406       .  A
O728        H744   0.992       .  S
O730        H741   0.992       .  S
C732        C733   1.404       .  A
C732        O737   1.372       .  S
C733        C734   1.404       .  A
C733        H738   1.084       .  S
C734        C735   1.407       .  A
C735        C736   1.399       .  A
C735        O739   1.371       .  S
C736        H740   1.083       .  S
O737        H742   0.992       .  S
O739        H743   0.992       .  S
C745        C746   1.403       .  A
C745        C750   1.402       .  A
C745        H755   1.084       .  S
C746        C747   1.406       .  A
C746        C751   1.477       .  S
C747        C748   1.398       .  A
C747        O752   1.371       .  S
C748        C749   1.403       .  A
C748        H753   1.083   1_455  S
C749        C750   1.411       .  A
C750        O754   1.372       .  S
C751        C756   1.404       .  A
C751        C760   1.401       .  A
O752        H768   0.992       .  S
O754        H765   0.992       .  S
C756        C757   1.399       .  A
C756        O761   1.372       .  S
C757        C758   1.407       .  A
C757        H762   1.083       .  S
C758        C759   1.413       .  A
C759        C760   1.401       .  A
C759        O763   1.371       .  S
C760        H764   1.084       .  S
O761        H766   0.991       .  S
O763        H767   0.992       .  S
C769        C770   1.399       .  A
C769        C774   1.398       .  A
C769        H779   1.084       .  S
C770        C771   1.405       .  A
C770        C775   1.474       .  S
C771        C772   1.400       .  A
C771        O776   1.372       .  S
C772        C773   1.407       .  A
C772        H777   1.083       .  S
C773        C774   1.414       .  A
C774        O778   1.371       .  S
C775        C780   1.404       .  A
C775        C784   1.399       .  A
O776        H792   0.992       .  S
O778        H789   0.992       .  S
C780        C781   1.400       .  A
C780        O785   1.371       .  S
C781        C782   1.407       .  A
C781        H786   1.083       .  S
C782        C783   1.412       .  A
C783        C784   1.400       .  A
C783        O787   1.372       .  S
C784        H788   1.084       .  S
O785        H790   0.992       .  S
O787        H791   0.992       .  S
C793        C794   1.403       .  A
C793        C798   1.401       .  A
C793        H803   1.083       .  S
C794        C795   1.407       .  A
C794        C799   1.484       .  S
C795        C796   1.399       .  A
C795        O800   1.372       .  S
C796        C797   1.407       .  A
C796        H801   1.082       .  S
C797        C798   1.413       .  A
C798        O802   1.371       .  S
C799        C804   1.409       .  A
C799        C808   1.404       .  A
O800        H816   0.992       .  S
O802        H813   0.992       .  S
C804        C805   1.403       .  A
C804        O809   1.372       .  S
C805        C806   1.404       .  A
C805        H810   1.084       .  S
C806        C807   1.406       .  A
C807        C808   1.399       .  A
C807        O811   1.372       .  S
C808        H812   1.084       .  S
O809        H814   0.992       .  S
O811        H815   0.992       .  S
C817        C818   1.403       .  A
C817        C822   1.400       .  A
C817        H827   1.083       .  S
C818        C819   1.410       .  A
C818        C823   1.485       .  S
C819        C820   1.403       .  A
C819        O824   1.371       .  S
C820        C821   1.403       .  A
C820        H825   1.084       .  S
C821        C822   1.407       .  A
C822        O826   1.372       .  S
C823        C828   1.407       .  A
C823        C832   1.403       .  A
O824        H840   0.992       .  S
O826        H837   0.992       .  S
C828        C829   1.402       .  A
C828        O833   1.372       .  S
C829        C830   1.407       .  A
C829        H834   1.083       .  S
C830        C831   1.413       .  A
C831        C832   1.402       .  A
C831        O835   1.371       .  S
C832        H836   1.084       .  S
O833        H838   0.992       .  S
O835        H839   0.992       .  S
C841        C842   1.404       .  A
C841        C846   1.402       .  A
C841        H851   1.084       .  S
C842        C843   1.407       .  A
C842        C847   1.480       .  S
C843        C844   1.399       .  A
C843        O848   1.372       .  S
C844        C845   1.403       .  A
C844        H849   1.084       .  S
C845        C846   1.409       .  A
C846        O850   1.372       .  S
C847        C852   1.405       .  A
C847        C856   1.402       .  A
O848        H864   0.992       .  S
O850        H861   0.992       .  S
C852        C853   1.399       .  A
C852        O857   1.372       .  S
C853        C854   1.407       .  A
C853        H858   1.082       .  S
C854        C855   1.414       .  A
C855        C856   1.401       .  A
C855        O859   1.370       .  S
C856        H860   1.084       .  S
O857        H862   0.992       .  S
O859        H863   0.992       .  S
C865        C866   1.402       .  A
C865        C870   1.404       .  A
C865        H875   1.084       .  S
C866        C867   1.405       .  A
C866        C871   1.480       .  S
C867        C868   1.402       .  A
C867        O872   1.371       .  S
C868        C869   1.407       .  A
C868        H873   1.083       .  S
C869        C870   1.411       .  A
C870        O874   1.372       .  S
C871        C876   1.407       .  A
C871        C880   1.401       .  A
O872        H888   0.992       .  S
O874        H885   0.992       .  S
C876        C877   1.404       .  A
C876        O881   1.371       .  S
C877        C878   1.405       .  A
C877        H882   1.083       .  S
C878        C879   1.410       .  A
C879        C880   1.400       .  A
C879        O883   1.372       .  S
C880        H884   1.084       .  S
O881        H886   0.992       .  S
O883        H887   0.992       .  S
C889        C890   1.404       .  A
C889        C894   1.402       .  A
C889        H899   1.083       .  S
C890        C891   1.408       .  A
C890        C895   1.482       .  S
C891        C892   1.400       .  A
C891        O896   1.372       .  S
C892        C893   1.403       .  A
C892        H897   1.084       .  S
C893        C894   1.410       .  A
C894        O898   1.372       .  S
C895        C900   1.405       .  A
C895        C904   1.402       .  A
O896        H912   0.992       .  S
O898        H909   0.992       .  S
C900        C901   1.399       .  A
C900        O905   1.372       .  S
C901        C902   1.407       .  A
C901        H906   1.082       .  S
C902        C903   1.415       .  A
C903        C904   1.404       .  A
C903        O907   1.371       .  S
C904        H908   1.084       .  S
O905        H910   0.992       .  S
O907        H911   0.992       .  S
C913        C914   1.401       .  A
C913        C918   1.397       .  A
C913        H923   1.084       .  S
C914        C915   1.408       .  A
C914        C919   1.477       .  S
C915        C916   1.401       .  A
C915        O920   1.372       .  S
C916        C917   1.403       .  A
C916        H921   1.084       .  S
C917        C918   1.409       .  A
C918        O922   1.372       .  S
C919        C924   1.406       .  A
C919        C928   1.401       .  A
O920        H936   0.992       .  S
O922        H933   0.992       .  S
C924        C925   1.398       .  A
C924        O929   1.372       .  S
C925        C926   1.405       .  A
C925        H930   1.083       .  S
C926        C927   1.412       .  A
C927        C928   1.400       .  A
C927        O931   1.371       .  S
C928        H932   1.084       .  S
O929        H934   0.992       .  S
O931        H935   0.992       .  S
C937        C938   1.406       .  A
C937        C942   1.403       .  A
C937        H947   1.083       .  S
C938        C939   1.408       .  A
C938        C943   1.482       .  S
C939        C940   1.394       .  A
C939        O944   1.372       .  S
C940        C941   1.398       .  A
C940        H945   1.078       .  S
C941        C942   1.407       .  A
C942        O946   1.371       .  S
C943        C948   1.409       .  A
C943        C952   1.403       .  A
O944        H960   0.992       .  S
O946        H957   0.992       .  S
C948        C949   1.400       .  A
C948        O953   1.372       .  S
C949        C950   1.405       .  A
C949        H954   1.083       .  S
C950        C951   1.410       .  A
C951        C952   1.396       .  A
C951        O955   1.371       .  S
C952        H956   1.084       .  S
O953        H958   0.992       .  S
O955        H959   0.992       .  S
C961        C962   1.402       .  A
C961        C966   1.405       .  A
C961        H971   1.083       .  S
C962        C963   1.400       .  A
C962        C967   1.474       .  S
C963        C964   1.394       .  A
C963        O968   1.372       .  S
C964        C965   1.407       .  A
C964        H969   1.075       .  S
C965        C966   1.414       .  A
C966        O970   1.371       .  S
C967        C972   1.404       .  A
C967        C976   1.400       .  A
O968        H984   0.992       .  S
O970        H981   0.992       .  S
C972        C973   1.400       .  A
C972        O977   1.372       .  S
C973        C974   1.408       .  A
C973        H978   1.083       .  S
C974        C975   1.412       .  A
C975        C976   1.400       .  A
C975        O979   1.371       .  S
C976        H980   1.084       .  S
O977        H982   0.991       .  S
O979        H983   0.992       .  S
C985        C986   1.399       .  A
C985        C990   1.403       .  A
C985        H995   1.084       .  S
C986        C987   1.403       .  A
C986        C991   1.482       .  S
C987        C988   1.402       .  A
C987        O992   1.372       .  S
C988        C989   1.413       .  A
C988        H993   1.077       .  S
C989        C990   1.419       .  A
C990        O994   1.372       .  S
C991        C996   1.403       .  A
C991       C1000   1.399       .  A
O992       H1008   0.991       .  S
O994       H1005   0.992       .  S
C996        C997   1.402       .  A
C996       O1001   1.372       .  S
C997        C998   1.413       .  A
C997       H1002   1.076       .  S
C998        C999   1.419       .  A
C999       C1000   1.403       .  A
C999       O1003   1.372       .  S
C1000      H1004   1.084       .  S
O1001      H1006   0.991       .  S
O1003      H1007   0.992       .  S
